---------------------------------------------------------------------------
-------------------------- RIENM Corporation ------------------------------
---------------------------------------------------------------------------

RUNSPEC
-- -------------------------------------------------------------------------

TITLE
   RIENM_CORP - CASE 1

DIMENS
   40 40 10 /

EQLDIMS
/

TABDIMS
/

OIL
WATER


METRIC

START
	1 'JAN' 2020 /

WELLDIMS
-- Item 1: maximum number of wells in the model
-- Item 2: maximum number of grid blocks connected to any one well
-- Item 3: maximum number of groups in the model
-- Item 4: maximum number of wells in any one group
   10000 10000 10000 10000 /

UNIFOUT

GRID

INIT


-- -------------------------------------------------------------------------
NOECHO

DX 
96.2 
84.8 
74.8 
65.9 
58.2 
51.3 
45.2 
39.9 
35.2 
31.0 
27.3 
24.1 
21.3 
18.8 
16.5 
14.6 
12.9 
11.3 
10 
10 
10 
10 
11.3 
12.9 
14.6 
16.5 
18.8 
21.3 
24.1 
27.3 
31.0 
35.2 
39.9 
45.2 
51.3 
58.2 
65.9 
74.8 
84.8 
96.2 
96.2 
84.8 
74.8 
65.9 
58.2 
51.3 
45.2 
39.9 
35.2 
31.0 
27.3 
24.1 
21.3 
18.8 
16.5 
14.6 
12.9 
11.3 
10 
10 
10 
10 
11.3 
12.9 
14.6 
16.5 
18.8 
21.3 
24.1 
27.3 
31.0 
35.2 
39.9 
45.2 
51.3 
58.2 
65.9 
74.8 
84.8 
96.2 
96.2 
84.8 
74.8 
65.9 
58.2 
51.3 
45.2 
39.9 
35.2 
31.0 
27.3 
24.1 
21.3 
18.8 
16.5 
14.6 
12.9 
11.3 
10 
10 
10 
10 
11.3 
12.9 
14.6 
16.5 
18.8 
21.3 
24.1 
27.3 
31.0 
35.2 
39.9 
45.2 
51.3 
58.2 
65.9 
74.8 
84.8 
96.2 
96.2 
84.8 
74.8 
65.9 
58.2 
51.3 
45.2 
39.9 
35.2 
31.0 
27.3 
24.1 
21.3 
18.8 
16.5 
14.6 
12.9 
11.3 
10 
10 
10 
10 
11.3 
12.9 
14.6 
16.5 
18.8 
21.3 
24.1 
27.3 
31.0 
35.2 
39.9 
45.2 
51.3 
58.2 
65.9 
74.8 
84.8 
96.2 
96.2 
84.8 
74.8 
65.9 
58.2 
51.3 
45.2 
39.9 
35.2 
31.0 
27.3 
24.1 
21.3 
18.8 
16.5 
14.6 
12.9 
11.3 
10 
10 
10 
10 
11.3 
12.9 
14.6 
16.5 
18.8 
21.3 
24.1 
27.3 
31.0 
35.2 
39.9 
45.2 
51.3 
58.2 
65.9 
74.8 
84.8 
96.2 
96.2 
84.8 
74.8 
65.9 
58.2 
51.3 
45.2 
39.9 
35.2 
31.0 
27.3 
24.1 
21.3 
18.8 
16.5 
14.6 
12.9 
11.3 
10 
10 
10 
10 
11.3 
12.9 
14.6 
16.5 
18.8 
21.3 
24.1 
27.3 
31.0 
35.2 
39.9 
45.2 
51.3 
58.2 
65.9 
74.8 
84.8 
96.2 
96.2 
84.8 
74.8 
65.9 
58.2 
51.3 
45.2 
39.9 
35.2 
31.0 
27.3 
24.1 
21.3 
18.8 
16.5 
14.6 
12.9 
11.3 
10 
10 
10 
10 
11.3 
12.9 
14.6 
16.5 
18.8 
21.3 
24.1 
27.3 
31.0 
35.2 
39.9 
45.2 
51.3 
58.2 
65.9 
74.8 
84.8 
96.2 
96.2 
84.8 
74.8 
65.9 
58.2 
51.3 
45.2 
39.9 
35.2 
31.0 
27.3 
24.1 
21.3 
18.8 
16.5 
14.6 
12.9 
11.3 
10 
10 
10 
10 
11.3 
12.9 
14.6 
16.5 
18.8 
21.3 
24.1 
27.3 
31.0 
35.2 
39.9 
45.2 
51.3 
58.2 
65.9 
74.8 
84.8 
96.2 
96.2 
84.8 
74.8 
65.9 
58.2 
51.3 
45.2 
39.9 
35.2 
31.0 
27.3 
24.1 
21.3 
18.8 
16.5 
14.6 
12.9 
11.3 
10 
10 
10 
10 
11.3 
12.9 
14.6 
16.5 
18.8 
21.3 
24.1 
27.3 
31.0 
35.2 
39.9 
45.2 
51.3 
58.2 
65.9 
74.8 
84.8 
96.2 
96.2 
84.8 
74.8 
65.9 
58.2 
51.3 
45.2 
39.9 
35.2 
31.0 
27.3 
24.1 
21.3 
18.8 
16.5 
14.6 
12.9 
11.3 
10 
10 
10 
10 
11.3 
12.9 
14.6 
16.5 
18.8 
21.3 
24.1 
27.3 
31.0 
35.2 
39.9 
45.2 
51.3 
58.2 
65.9 
74.8 
84.8 
96.2 
96.2 
84.8 
74.8 
65.9 
58.2 
51.3 
45.2 
39.9 
35.2 
31.0 
27.3 
24.1 
21.3 
18.8 
16.5 
14.6 
12.9 
11.3 
10 
10 
10 
10 
11.3 
12.9 
14.6 
16.5 
18.8 
21.3 
24.1 
27.3 
31.0 
35.2 
39.9 
45.2 
51.3 
58.2 
65.9 
74.8 
84.8 
96.2 
96.2 
84.8 
74.8 
65.9 
58.2 
51.3 
45.2 
39.9 
35.2 
31.0 
27.3 
24.1 
21.3 
18.8 
16.5 
14.6 
12.9 
11.3 
10 
10 
10 
10 
11.3 
12.9 
14.6 
16.5 
18.8 
21.3 
24.1 
27.3 
31.0 
35.2 
39.9 
45.2 
51.3 
58.2 
65.9 
74.8 
84.8 
96.2 
96.2 
84.8 
74.8 
65.9 
58.2 
51.3 
45.2 
39.9 
35.2 
31.0 
27.3 
24.1 
21.3 
18.8 
16.5 
14.6 
12.9 
11.3 
10 
10 
10 
10 
11.3 
12.9 
14.6 
16.5 
18.8 
21.3 
24.1 
27.3 
31.0 
35.2 
39.9 
45.2 
51.3 
58.2 
65.9 
74.8 
84.8 
96.2 
96.2 
84.8 
74.8 
65.9 
58.2 
51.3 
45.2 
39.9 
35.2 
31.0 
27.3 
24.1 
21.3 
18.8 
16.5 
14.6 
12.9 
11.3 
10 
10 
10 
10 
11.3 
12.9 
14.6 
16.5 
18.8 
21.3 
24.1 
27.3 
31.0 
35.2 
39.9 
45.2 
51.3 
58.2 
65.9 
74.8 
84.8 
96.2 
96.2 
84.8 
74.8 
65.9 
58.2 
51.3 
45.2 
39.9 
35.2 
31.0 
27.3 
24.1 
21.3 
18.8 
16.5 
14.6 
12.9 
11.3 
10 
10 
10 
10 
11.3 
12.9 
14.6 
16.5 
18.8 
21.3 
24.1 
27.3 
31.0 
35.2 
39.9 
45.2 
51.3 
58.2 
65.9 
74.8 
84.8 
96.2 
96.2 
84.8 
74.8 
65.9 
58.2 
51.3 
45.2 
39.9 
35.2 
31.0 
27.3 
24.1 
21.3 
18.8 
16.5 
14.6 
12.9 
11.3 
10 
10 
10 
10 
11.3 
12.9 
14.6 
16.5 
18.8 
21.3 
24.1 
27.3 
31.0 
35.2 
39.9 
45.2 
51.3 
58.2 
65.9 
74.8 
84.8 
96.2 
96.2 
84.8 
74.8 
65.9 
58.2 
51.3 
45.2 
39.9 
35.2 
31.0 
27.3 
24.1 
21.3 
18.8 
16.5 
14.6 
12.9 
11.3 
10 
10 
10 
10 
11.3 
12.9 
14.6 
16.5 
18.8 
21.3 
24.1 
27.3 
31.0 
35.2 
39.9 
45.2 
51.3 
58.2 
65.9 
74.8 
84.8 
96.2 
96.2 
84.8 
74.8 
65.9 
58.2 
51.3 
45.2 
39.9 
35.2 
31.0 
27.3 
24.1 
21.3 
18.8 
16.5 
14.6 
12.9 
11.3 
10 
10 
10 
10 
11.3 
12.9 
14.6 
16.5 
18.8 
21.3 
24.1 
27.3 
31.0 
35.2 
39.9 
45.2 
51.3 
58.2 
65.9 
74.8 
84.8 
96.2 
96.2 
84.8 
74.8 
65.9 
58.2 
51.3 
45.2 
39.9 
35.2 
31.0 
27.3 
24.1 
21.3 
18.8 
16.5 
14.6 
12.9 
11.3 
10 
10 
10 
10 
11.3 
12.9 
14.6 
16.5 
18.8 
21.3 
24.1 
27.3 
31.0 
35.2 
39.9 
45.2 
51.3 
58.2 
65.9 
74.8 
84.8 
96.2 
96.2 
84.8 
74.8 
65.9 
58.2 
51.3 
45.2 
39.9 
35.2 
31.0 
27.3 
24.1 
21.3 
18.8 
16.5 
14.6 
12.9 
11.3 
10 
10 
10 
10 
11.3 
12.9 
14.6 
16.5 
18.8 
21.3 
24.1 
27.3 
31.0 
35.2 
39.9 
45.2 
51.3 
58.2 
65.9 
74.8 
84.8 
96.2 
96.2 
84.8 
74.8 
65.9 
58.2 
51.3 
45.2 
39.9 
35.2 
31.0 
27.3 
24.1 
21.3 
18.8 
16.5 
14.6 
12.9 
11.3 
10 
10 
10 
10 
11.3 
12.9 
14.6 
16.5 
18.8 
21.3 
24.1 
27.3 
31.0 
35.2 
39.9 
45.2 
51.3 
58.2 
65.9 
74.8 
84.8 
96.2 
96.2 
84.8 
74.8 
65.9 
58.2 
51.3 
45.2 
39.9 
35.2 
31.0 
27.3 
24.1 
21.3 
18.8 
16.5 
14.6 
12.9 
11.3 
10 
10 
10 
10 
11.3 
12.9 
14.6 
16.5 
18.8 
21.3 
24.1 
27.3 
31.0 
35.2 
39.9 
45.2 
51.3 
58.2 
65.9 
74.8 
84.8 
96.2 
96.2 
84.8 
74.8 
65.9 
58.2 
51.3 
45.2 
39.9 
35.2 
31.0 
27.3 
24.1 
21.3 
18.8 
16.5 
14.6 
12.9 
11.3 
10 
10 
10 
10 
11.3 
12.9 
14.6 
16.5 
18.8 
21.3 
24.1 
27.3 
31.0 
35.2 
39.9 
45.2 
51.3 
58.2 
65.9 
74.8 
84.8 
96.2 
96.2 
84.8 
74.8 
65.9 
58.2 
51.3 
45.2 
39.9 
35.2 
31.0 
27.3 
24.1 
21.3 
18.8 
16.5 
14.6 
12.9 
11.3 
10 
10 
10 
10 
11.3 
12.9 
14.6 
16.5 
18.8 
21.3 
24.1 
27.3 
31.0 
35.2 
39.9 
45.2 
51.3 
58.2 
65.9 
74.8 
84.8 
96.2 
96.2 
84.8 
74.8 
65.9 
58.2 
51.3 
45.2 
39.9 
35.2 
31.0 
27.3 
24.1 
21.3 
18.8 
16.5 
14.6 
12.9 
11.3 
10 
10 
10 
10 
11.3 
12.9 
14.6 
16.5 
18.8 
21.3 
24.1 
27.3 
31.0 
35.2 
39.9 
45.2 
51.3 
58.2 
65.9 
74.8 
84.8 
96.2 
96.2 
84.8 
74.8 
65.9 
58.2 
51.3 
45.2 
39.9 
35.2 
31.0 
27.3 
24.1 
21.3 
18.8 
16.5 
14.6 
12.9 
11.3 
10 
10 
10 
10 
11.3 
12.9 
14.6 
16.5 
18.8 
21.3 
24.1 
27.3 
31.0 
35.2 
39.9 
45.2 
51.3 
58.2 
65.9 
74.8 
84.8 
96.2 
96.2 
84.8 
74.8 
65.9 
58.2 
51.3 
45.2 
39.9 
35.2 
31.0 
27.3 
24.1 
21.3 
18.8 
16.5 
14.6 
12.9 
11.3 
10 
10 
10 
10 
11.3 
12.9 
14.6 
16.5 
18.8 
21.3 
24.1 
27.3 
31.0 
35.2 
39.9 
45.2 
51.3 
58.2 
65.9 
74.8 
84.8 
96.2 
96.2 
84.8 
74.8 
65.9 
58.2 
51.3 
45.2 
39.9 
35.2 
31.0 
27.3 
24.1 
21.3 
18.8 
16.5 
14.6 
12.9 
11.3 
10 
10 
10 
10 
11.3 
12.9 
14.6 
16.5 
18.8 
21.3 
24.1 
27.3 
31.0 
35.2 
39.9 
45.2 
51.3 
58.2 
65.9 
74.8 
84.8 
96.2 
96.2 
84.8 
74.8 
65.9 
58.2 
51.3 
45.2 
39.9 
35.2 
31.0 
27.3 
24.1 
21.3 
18.8 
16.5 
14.6 
12.9 
11.3 
10 
10 
10 
10 
11.3 
12.9 
14.6 
16.5 
18.8 
21.3 
24.1 
27.3 
31.0 
35.2 
39.9 
45.2 
51.3 
58.2 
65.9 
74.8 
84.8 
96.2 
96.2 
84.8 
74.8 
65.9 
58.2 
51.3 
45.2 
39.9 
35.2 
31.0 
27.3 
24.1 
21.3 
18.8 
16.5 
14.6 
12.9 
11.3 
10 
10 
10 
10 
11.3 
12.9 
14.6 
16.5 
18.8 
21.3 
24.1 
27.3 
31.0 
35.2 
39.9 
45.2 
51.3 
58.2 
65.9 
74.8 
84.8 
96.2 
96.2 
84.8 
74.8 
65.9 
58.2 
51.3 
45.2 
39.9 
35.2 
31.0 
27.3 
24.1 
21.3 
18.8 
16.5 
14.6 
12.9 
11.3 
10 
10 
10 
10 
11.3 
12.9 
14.6 
16.5 
18.8 
21.3 
24.1 
27.3 
31.0 
35.2 
39.9 
45.2 
51.3 
58.2 
65.9 
74.8 
84.8 
96.2 
96.2 
84.8 
74.8 
65.9 
58.2 
51.3 
45.2 
39.9 
35.2 
31.0 
27.3 
24.1 
21.3 
18.8 
16.5 
14.6 
12.9 
11.3 
10 
10 
10 
10 
11.3 
12.9 
14.6 
16.5 
18.8 
21.3 
24.1 
27.3 
31.0 
35.2 
39.9 
45.2 
51.3 
58.2 
65.9 
74.8 
84.8 
96.2 
96.2 
84.8 
74.8 
65.9 
58.2 
51.3 
45.2 
39.9 
35.2 
31.0 
27.3 
24.1 
21.3 
18.8 
16.5 
14.6 
12.9 
11.3 
10 
10 
10 
10 
11.3 
12.9 
14.6 
16.5 
18.8 
21.3 
24.1 
27.3 
31.0 
35.2 
39.9 
45.2 
51.3 
58.2 
65.9 
74.8 
84.8 
96.2 
96.2 
84.8 
74.8 
65.9 
58.2 
51.3 
45.2 
39.9 
35.2 
31.0 
27.3 
24.1 
21.3 
18.8 
16.5 
14.6 
12.9 
11.3 
10 
10 
10 
10 
11.3 
12.9 
14.6 
16.5 
18.8 
21.3 
24.1 
27.3 
31.0 
35.2 
39.9 
45.2 
51.3 
58.2 
65.9 
74.8 
84.8 
96.2 
96.2 
84.8 
74.8 
65.9 
58.2 
51.3 
45.2 
39.9 
35.2 
31.0 
27.3 
24.1 
21.3 
18.8 
16.5 
14.6 
12.9 
11.3 
10 
10 
10 
10 
11.3 
12.9 
14.6 
16.5 
18.8 
21.3 
24.1 
27.3 
31.0 
35.2 
39.9 
45.2 
51.3 
58.2 
65.9 
74.8 
84.8 
96.2 
96.2 
84.8 
74.8 
65.9 
58.2 
51.3 
45.2 
39.9 
35.2 
31.0 
27.3 
24.1 
21.3 
18.8 
16.5 
14.6 
12.9 
11.3 
10 
10 
10 
10 
11.3 
12.9 
14.6 
16.5 
18.8 
21.3 
24.1 
27.3 
31.0 
35.2 
39.9 
45.2 
51.3 
58.2 
65.9 
74.8 
84.8 
96.2 
96.2 
84.8 
74.8 
65.9 
58.2 
51.3 
45.2 
39.9 
35.2 
31.0 
27.3 
24.1 
21.3 
18.8 
16.5 
14.6 
12.9 
11.3 
10 
10 
10 
10 
11.3 
12.9 
14.6 
16.5 
18.8 
21.3 
24.1 
27.3 
31.0 
35.2 
39.9 
45.2 
51.3 
58.2 
65.9 
74.8 
84.8 
96.2 
96.2 
84.8 
74.8 
65.9 
58.2 
51.3 
45.2 
39.9 
35.2 
31.0 
27.3 
24.1 
21.3 
18.8 
16.5 
14.6 
12.9 
11.3 
10 
10 
10 
10 
11.3 
12.9 
14.6 
16.5 
18.8 
21.3 
24.1 
27.3 
31.0 
35.2 
39.9 
45.2 
51.3 
58.2 
65.9 
74.8 
84.8 
96.2 
96.2 
84.8 
74.8 
65.9 
58.2 
51.3 
45.2 
39.9 
35.2 
31.0 
27.3 
24.1 
21.3 
18.8 
16.5 
14.6 
12.9 
11.3 
10 
10 
10 
10 
11.3 
12.9 
14.6 
16.5 
18.8 
21.3 
24.1 
27.3 
31.0 
35.2 
39.9 
45.2 
51.3 
58.2 
65.9 
74.8 
84.8 
96.2 
96.2 
84.8 
74.8 
65.9 
58.2 
51.3 
45.2 
39.9 
35.2 
31.0 
27.3 
24.1 
21.3 
18.8 
16.5 
14.6 
12.9 
11.3 
10 
10 
10 
10 
11.3 
12.9 
14.6 
16.5 
18.8 
21.3 
24.1 
27.3 
31.0 
35.2 
39.9 
45.2 
51.3 
58.2 
65.9 
74.8 
84.8 
96.2 
/

DY
168.0 
168.0 
168.0 
168.0 
168.0 
168.0 
168.0 
168.0 
168.0 
168.0 
168.0 
168.0 
168.0 
168.0 
168.0 
168.0 
168.0 
168.0 
168.0 
168.0 
168.0 
168.0 
168.0 
168.0 
168.0 
168.0 
168.0 
168.0 
168.0 
168.0 
168.0 
168.0 
168.0 
168.0 
168.0 
168.0 
168.0 
168.0 
168.0 
168.0 
126.7 
126.7 
126.7 
126.7 
126.7 
126.7 
126.7 
126.7 
126.7 
126.7 
126.7 
126.7 
126.7 
126.7 
126.7 
126.7 
126.7 
126.7 
126.7 
126.7 
126.7 
126.7 
126.7 
126.7 
126.7 
126.7 
126.7 
126.7 
126.7 
126.7 
126.7 
126.7 
126.7 
126.7 
126.7 
126.7 
126.7 
126.7 
126.7 
126.7 
95.6 
95.6 
95.6 
95.6 
95.6 
95.6 
95.6 
95.6 
95.6 
95.6 
95.6 
95.6 
95.6 
95.6 
95.6 
95.6 
95.6 
95.6 
95.6 
95.6 
95.6 
95.6 
95.6 
95.6 
95.6 
95.6 
95.6 
95.6 
95.6 
95.6 
95.6 
95.6 
95.6 
95.6 
95.6 
95.6 
95.6 
95.6 
95.6 
95.6 
72.1 
72.1 
72.1 
72.1 
72.1 
72.1 
72.1 
72.1 
72.1 
72.1 
72.1 
72.1 
72.1 
72.1 
72.1 
72.1 
72.1 
72.1 
72.1 
72.1 
72.1 
72.1 
72.1 
72.1 
72.1 
72.1 
72.1 
72.1 
72.1 
72.1 
72.1 
72.1 
72.1 
72.1 
72.1 
72.1 
72.1 
72.1 
72.1 
72.1 
54.4 
54.4 
54.4 
54.4 
54.4 
54.4 
54.4 
54.4 
54.4 
54.4 
54.4 
54.4 
54.4 
54.4 
54.4 
54.4 
54.4 
54.4 
54.4 
54.4 
54.4 
54.4 
54.4 
54.4 
54.4 
54.4 
54.4 
54.4 
54.4 
54.4 
54.4 
54.4 
54.4 
54.4 
54.4 
54.4 
54.4 
54.4 
54.4 
54.4 
41.0 
41.0 
41.0 
41.0 
41.0 
41.0 
41.0 
41.0 
41.0 
41.0 
41.0 
41.0 
41.0 
41.0 
41.0 
41.0 
41.0 
41.0 
41.0 
41.0 
41.0 
41.0 
41.0 
41.0 
41.0 
41.0 
41.0 
41.0 
41.0 
41.0 
41.0 
41.0 
41.0 
41.0 
41.0 
41.0 
41.0 
41.0 
41.0 
41.0 
30.9 
30.9 
30.9 
30.9 
30.9 
30.9 
30.9 
30.9 
30.9 
30.9 
30.9 
30.9 
30.9 
30.9 
30.9 
30.9 
30.9 
30.9 
30.9 
30.9 
30.9 
30.9 
30.9 
30.9 
30.9 
30.9 
30.9 
30.9 
30.9 
30.9 
30.9 
30.9 
30.9 
30.9 
30.9 
30.9 
30.9 
30.9 
30.9 
30.9 
23.3 
23.3 
23.3 
23.3 
23.3 
23.3 
23.3 
23.3 
23.3 
23.3 
23.3 
23.3 
23.3 
23.3 
23.3 
23.3 
23.3 
23.3 
23.3 
23.3 
23.3 
23.3 
23.3 
23.3 
23.3 
23.3 
23.3 
23.3 
23.3 
23.3 
23.3 
23.3 
23.3 
23.3 
23.3 
23.3 
23.3 
23.3 
23.3 
23.3 
17.6 
17.6 
17.6 
17.6 
17.6 
17.6 
17.6 
17.6 
17.6 
17.6 
17.6 
17.6 
17.6 
17.6 
17.6 
17.6 
17.6 
17.6 
17.6 
17.6 
17.6 
17.6 
17.6 
17.6 
17.6 
17.6 
17.6 
17.6 
17.6 
17.6 
17.6 
17.6 
17.6 
17.6 
17.6 
17.6 
17.6 
17.6 
17.6 
17.6 
13.3 
13.3 
13.3 
13.3 
13.3 
13.3 
13.3 
13.3 
13.3 
13.3 
13.3 
13.3 
13.3 
13.3 
13.3 
13.3 
13.3 
13.3 
13.3 
13.3 
13.3 
13.3 
13.3 
13.3 
13.3 
13.3 
13.3 
13.3 
13.3 
13.3 
13.3 
13.3 
13.3 
13.3 
13.3 
13.3 
13.3 
13.3 
13.3 
13.3 
10 
10 
10 
10 
10 
10 
10 
10 
10 
10 
10 
10 
10 
10 
10 
10 
10 
10 
10 
10 
10 
10 
10 
10 
10 
10 
10 
10 
10 
10 
10 
10 
10 
10 
10 
10 
10 
10 
10 
10 
10 
10 
10 
10 
10 
10 
10 
10 
10 
10 
10 
10 
10 
10 
10 
10 
10 
10 
10 
10 
10 
10 
10 
10 
10 
10 
10 
10 
10 
10 
10 
10 
10 
10 
10 
10 
10 
10 
10 
10 
10 
10 
10 
10 
10 
10 
10 
10 
10 
10 
10 
10 
10 
10 
10 
10 
10 
10 
10 
10 
10 
10 
10 
10 
10 
10 
10 
10 
10 
10 
10 
10 
10 
10 
10 
10 
10 
10 
10 
10 
10 
10 
10 
10 
10 
10 
10 
10 
10 
10 
10 
10 
10 
10 
10 
10 
10 
10 
10 
10 
10 
10 
10 
10 
10 
10 
10 
10 
10 
10 
10 
10 
10 
10 
10 
10 
10 
10 
10 
10 
10 
10 
10 
10 
10 
10 
10 
10 
10 
10 
10 
10 
10 
10 
10 
10 
10 
10 
10 
10 
10 
10 
10 
10 
10 
10 
10 
10 
10 
10 
10 
10 
10 
10 
10 
10 
10 
10 
10 
10 
10 
10 
10 
10 
10 
10 
10 
10 
10 
10 
10 
10 
10 
10 
10 
10 
10 
10 
10 
10 
10 
10 
10 
10 
10 
10 
10 
10 
10 
10 
10 
10 
10 
10 
10 
10 
10 
10 
10 
10 
10 
10 
10 
10 
10 
10 
10 
10 
10 
10 
10 
10 
10 
10 
10 
10 
10 
10 
10 
10 
10 
10 
10 
10 
10 
10 
10 
10 
10 
10 
10 
10 
10 
10 
10 
10 
10 
10 
10 
10 
10 
10 
10 
10 
10 
10 
10 
10 
10 
10 
10 
10 
10 
10 
10 
10 
10 
10 
10 
10 
10 
10 
10 
10 
10 
10 
10 
10 
10 
10 
10 
10 
10 
10 
10 
10 
10 
10 
10 
10 
10 
10 
10 
10 
10 
10 
10 
10 
10 
10 
10 
10 
10 
10 
10 
10 
10 
10 
10 
10 
10 
10 
10 
10 
10 
10 
10 
10 
10 
10 
10 
10 
10 
10 
10 
10 
10 
10 
10 
10 
10 
10 
10 
10 
10 
10 
10 
10 
10 
10 
10 
10 
10 
10 
10 
10 
10 
10 
10 
10 
10 
10 
10 
10 
10 
10 
10 
10 
10 
10 
10 
10 
10 
10 
10 
10 
10 
10 
10 
10 
10 
10 
10 
10 
10 
10 
10 
10 
10 
10 
10 
10 
10 
10 
10 
10 
10 
10 
10 
10 
10 
10 
10 
10 
10 
10 
10 
10 
10 
10 
10 
10 
10 
10 
10 
10 
10 
10 
10 
10 
10 
10 
10 
10 
10 
10 
10 
10 
10 
10 
10 
10 
10 
10 
10 
10 
10 
10 
10 
10 
10 
10 
10 
10 
10 
10 
10 
10 
10 
10 
10 
10 
10 
10 
10 
10 
10 
10 
10 
10 
10 
10 
10 
10 
10 
10 
10 
10 
10 
10 
10 
10 
10 
10 
10 
10 
10 
10 
10 
10 
10 
10 
10 
10 
10 
10 
10 
10 
10 
10 
10 
10 
10 
10 
10 
10 
10 
10 
10 
10 
10 
10 
10 
10 
10 
10 
10 
10 
10 
10 
10 
10 
10 
10 
10 
10 
10 
10 
10 
10 
10 
10 
10 
10 
10 
10 
10 
10 
10 
10 
10 
10 
10 
10 
10 
10 
10 
10 
10 
10 
10 
10 
10 
10 
10 
10 
10 
10 
10 
10 
10 
10 
10 
10 
10 
10 
10 
10 
10 
10 
10 
10 
10 
10 
10 
10 
10 
10 
10 
10 
10 
10 
10 
10 
10 
10 
10 
10 
10 
10 
10 
10 
10 
10 
10 
10 
10 
10 
10 
10 
10 
10 
10 
10 
10 
10 
10 
10 
10 
10 
10 
10 
10 
10 
10 
10 
10 
10 
10 
10 
10 
10 
10 
10 
10 
10 
10 
10 
10 
10 
10 
10 
10 
10 
10 
10 
10 
10 
10 
10 
10 
10 
10 
10 
10 
10 
10 
10 
10 
10 
10 
10 
10 
10 
10 
10 
10 
10 
10 
10 
10 
10 
10 
10 
10 
10 
10 
10 
10 
10 
10 
10 
10 
10 
10 
10 
10 
10 
10 
10 
10 
10 
10 
10 
10 
10 
10 
10 
10 
10 
10 
10 
10 
10 
10 
10 
10 
10 
10 
10 
10 
10 
10 
10 
10 
10 
10 
10 
10 
10 
10 
10 
10 
10 
10 
10 
10 
10 
10 
10 
10 
10 
10 
10 
10 
10 
10 
10 
10 
10 
10 
10 
10 
10 
10 
10 
10 
10 
10 
10 
10 
10 
10 
10 
10 
10 
10 
10 
10 
10 
10 
10 
10 
10 
10 
10 
10 
10 
10 
10 
10 
10 
10 
10 
10 
10 
10 
10 
10 
10 
10 
10 
10 
10 
10 
10 
10 
10 
10 
10 
10 
10 
10 
10 
10 
10 
10 
10 
10 
10 
13.3 
13.3 
13.3 
13.3 
13.3 
13.3 
13.3 
13.3 
13.3 
13.3 
13.3 
13.3 
13.3 
13.3 
13.3 
13.3 
13.3 
13.3 
13.3 
13.3 
13.3 
13.3 
13.3 
13.3 
13.3 
13.3 
13.3 
13.3 
13.3 
13.3 
13.3 
13.3 
13.3 
13.3 
13.3 
13.3 
13.3 
13.3 
13.3 
13.3 
17.6 
17.6 
17.6 
17.6 
17.6 
17.6 
17.6 
17.6 
17.6 
17.6 
17.6 
17.6 
17.6 
17.6 
17.6 
17.6 
17.6 
17.6 
17.6 
17.6 
17.6 
17.6 
17.6 
17.6 
17.6 
17.6 
17.6 
17.6 
17.6 
17.6 
17.6 
17.6 
17.6 
17.6 
17.6 
17.6 
17.6 
17.6 
17.6 
17.6 
23.3 
23.3 
23.3 
23.3 
23.3 
23.3 
23.3 
23.3 
23.3 
23.3 
23.3 
23.3 
23.3 
23.3 
23.3 
23.3 
23.3 
23.3 
23.3 
23.3 
23.3 
23.3 
23.3 
23.3 
23.3 
23.3 
23.3 
23.3 
23.3 
23.3 
23.3 
23.3 
23.3 
23.3 
23.3 
23.3 
23.3 
23.3 
23.3 
23.3 
30.9 
30.9 
30.9 
30.9 
30.9 
30.9 
30.9 
30.9 
30.9 
30.9 
30.9 
30.9 
30.9 
30.9 
30.9 
30.9 
30.9 
30.9 
30.9 
30.9 
30.9 
30.9 
30.9 
30.9 
30.9 
30.9 
30.9 
30.9 
30.9 
30.9 
30.9 
30.9 
30.9 
30.9 
30.9 
30.9 
30.9 
30.9 
30.9 
30.9 
41.0 
41.0 
41.0 
41.0 
41.0 
41.0 
41.0 
41.0 
41.0 
41.0 
41.0 
41.0 
41.0 
41.0 
41.0 
41.0 
41.0 
41.0 
41.0 
41.0 
41.0 
41.0 
41.0 
41.0 
41.0 
41.0 
41.0 
41.0 
41.0 
41.0 
41.0 
41.0 
41.0 
41.0 
41.0 
41.0 
41.0 
41.0 
41.0 
41.0 
54.4 
54.4 
54.4 
54.4 
54.4 
54.4 
54.4 
54.4 
54.4 
54.4 
54.4 
54.4 
54.4 
54.4 
54.4 
54.4 
54.4 
54.4 
54.4 
54.4 
54.4 
54.4 
54.4 
54.4 
54.4 
54.4 
54.4 
54.4 
54.4 
54.4 
54.4 
54.4 
54.4 
54.4 
54.4 
54.4 
54.4 
54.4 
54.4 
54.4 
72.1 
72.1 
72.1 
72.1 
72.1 
72.1 
72.1 
72.1 
72.1 
72.1 
72.1 
72.1 
72.1 
72.1 
72.1 
72.1 
72.1 
72.1 
72.1 
72.1 
72.1 
72.1 
72.1 
72.1 
72.1 
72.1 
72.1 
72.1 
72.1 
72.1 
72.1 
72.1 
72.1 
72.1 
72.1 
72.1 
72.1 
72.1 
72.1 
72.1 
95.6 
95.6 
95.6 
95.6 
95.6 
95.6 
95.6 
95.6 
95.6 
95.6 
95.6 
95.6 
95.6 
95.6 
95.6 
95.6 
95.6 
95.6 
95.6 
95.6 
95.6 
95.6 
95.6 
95.6 
95.6 
95.6 
95.6 
95.6 
95.6 
95.6 
95.6 
95.6 
95.6 
95.6 
95.6 
95.6 
95.6 
95.6 
95.6 
95.6 
126.7 
126.7 
126.7 
126.7 
126.7 
126.7 
126.7 
126.7 
126.7 
126.7 
126.7 
126.7 
126.7 
126.7 
126.7 
126.7 
126.7 
126.7 
126.7 
126.7 
126.7 
126.7 
126.7 
126.7 
126.7 
126.7 
126.7 
126.7 
126.7 
126.7 
126.7 
126.7 
126.7 
126.7 
126.7 
126.7 
126.7 
126.7 
126.7 
126.7 
168.0 
168.0 
168.0 
168.0 
168.0 
168.0 
168.0 
168.0 
168.0 
168.0 
168.0 
168.0 
168.0 
168.0 
168.0 
168.0 
168.0 
168.0 
168.0 
168.0 
168.0 
168.0 
168.0 
168.0 
168.0 
168.0 
168.0 
168.0 
168.0 
168.0 
168.0 
168.0 
168.0 
168.0 
168.0 
168.0 
168.0 
168.0 
168.0 
168.0 
/

DZ
16000*1 /

TOPS
1600*2500 /

PORO
41*1000 38*0.3 2*1000 38*0.3 2*1000 38*0.3 2*1000 38*0.3 2*1000 38*0.3 2*1000 38*0.3 2*1000 38*0.3 2*1000 38*0.3 2*1000 38*0.3 2*1000 38*0.3 2*1000 38*0.3 2*1000 38*0.3 2*1000 38*0.3 2*1000 38*0.3 2*1000 38*0.3 2*1000 38*0.3 2*1000 38*0.3 2*1000 38*0.3 2*1000 38*0.3 2*1000 38*0.3 2*1000 38*0.3 2*1000 38*0.3 2*1000 38*0.3 2*1000 38*0.3 2*1000 38*0.3 2*1000 38*0.3 2*1000 38*0.3 2*1000 38*0.3 2*1000 38*0.3 2*1000 38*0.3 2*1000 38*0.3 2*1000 38*0.3 2*1000 38*0.3 2*1000 38*0.3 2*1000 38*0.3 2*1000 38*0.3 2*1000 38*0.3 2*1000 38*0.3 41*1000 41*1000 38*0.3 2*1000 38*0.3 2*1000 38*0.3 2*1000 38*0.3 2*1000 38*0.3 2*1000 38*0.3 2*1000 38*0.3 2*1000 38*0.3 2*1000 38*0.3 2*1000 38*0.3 2*1000 38*0.3 2*1000 38*0.3 2*1000 38*0.3 2*1000 38*0.3 2*1000 38*0.3 2*1000 38*0.3 2*1000 38*0.3 2*1000 38*0.3 2*1000 38*0.3 2*1000 38*0.3 2*1000 38*0.3 2*1000 38*0.3 2*1000 38*0.3 2*1000 38*0.3 2*1000 38*0.3 2*1000 38*0.3 2*1000 38*0.3 2*1000 38*0.3 2*1000 38*0.3 2*1000 38*0.3 2*1000 38*0.3 2*1000 38*0.3 2*1000 38*0.3 2*1000 38*0.3 2*1000 38*0.3 2*1000 38*0.3 2*1000 38*0.3 2*1000 38*0.3 41*1000 41*1000 38*0.3 2*1000 38*0.3 2*1000 38*0.3 2*1000 38*0.3 2*1000 38*0.3 2*1000 38*0.3 2*1000 38*0.3 2*1000 38*0.3 2*1000 38*0.3 2*1000 38*0.3 2*1000 38*0.3 2*1000 38*0.3 2*1000 38*0.3 2*1000 38*0.3 2*1000 38*0.3 2*1000 38*0.3 2*1000 38*0.3 2*1000 38*0.3 2*1000 38*0.3 2*1000 38*0.3 2*1000 38*0.3 2*1000 38*0.3 2*1000 38*0.3 2*1000 38*0.3 2*1000 38*0.3 2*1000 38*0.3 2*1000 38*0.3 2*1000 38*0.3 2*1000 38*0.3 2*1000 38*0.3 2*1000 38*0.3 2*1000 38*0.3 2*1000 38*0.3 2*1000 38*0.3 2*1000 38*0.3 2*1000 38*0.3 2*1000 38*0.3 2*1000 38*0.3 41*1000 41*1000 38*0.3 2*1000 38*0.3 2*1000 38*0.3 2*1000 38*0.3 2*1000 38*0.3 2*1000 38*0.3 2*1000 38*0.3 2*1000 38*0.3 2*1000 38*0.3 2*1000 38*0.3 2*1000 38*0.3 2*1000 38*0.3 2*1000 38*0.3 2*1000 38*0.3 2*1000 38*0.3 2*1000 38*0.3 2*1000 38*0.3 2*1000 38*0.3 2*1000 38*0.3 2*1000 38*0.3 2*1000 38*0.3 2*1000 38*0.3 2*1000 38*0.3 2*1000 38*0.3 2*1000 38*0.3 2*1000 38*0.3 2*1000 38*0.3 2*1000 38*0.3 2*1000 38*0.3 2*1000 38*0.3 2*1000 38*0.3 2*1000 38*0.3 2*1000 38*0.3 2*1000 38*0.3 2*1000 38*0.3 2*1000 38*0.3 2*1000 38*0.3 2*1000 38*0.3 41*1000 41*1000 38*0.3 2*1000 38*0.3 2*1000 38*0.3 2*1000 38*0.3 2*1000 38*0.3 2*1000 38*0.3 2*1000 38*0.3 2*1000 38*0.3 2*1000 38*0.3 2*1000 38*0.3 2*1000 38*0.3 2*1000 38*0.3 2*1000 38*0.3 2*1000 38*0.3 2*1000 38*0.3 2*1000 38*0.3 2*1000 38*0.3 2*1000 38*0.3 2*1000 38*0.3 2*1000 38*0.3 2*1000 38*0.3 2*1000 38*0.3 2*1000 38*0.3 2*1000 38*0.3 2*1000 38*0.3 2*1000 38*0.3 2*1000 38*0.3 2*1000 38*0.3 2*1000 38*0.3 2*1000 38*0.3 2*1000 38*0.3 2*1000 38*0.3 2*1000 38*0.3 2*1000 38*0.3 2*1000 38*0.3 2*1000 38*0.3 2*1000 38*0.3 2*1000 38*0.3 41*1000 41*1000 38*0.3 2*1000 38*0.3 2*1000 38*0.3 2*1000 38*0.3 2*1000 38*0.3 2*1000 38*0.3 2*1000 38*0.3 2*1000 38*0.3 2*1000 38*0.3 2*1000 38*0.3 2*1000 38*0.3 2*1000 38*0.3 2*1000 38*0.3 2*1000 38*0.3 2*1000 38*0.3 2*1000 38*0.3 2*1000 38*0.3 2*1000 38*0.3 2*1000 38*0.3 2*1000 38*0.3 2*1000 38*0.3 2*1000 38*0.3 2*1000 38*0.3 2*1000 38*0.3 2*1000 38*0.3 2*1000 38*0.3 2*1000 38*0.3 2*1000 38*0.3 2*1000 38*0.3 2*1000 38*0.3 2*1000 38*0.3 2*1000 38*0.3 2*1000 38*0.3 2*1000 38*0.3 2*1000 38*0.3 2*1000 38*0.3 2*1000 38*0.3 2*1000 38*0.3 41*1000 41*1000 38*0.3 2*1000 38*0.3 2*1000 38*0.3 2*1000 38*0.3 2*1000 38*0.3 2*1000 38*0.3 2*1000 38*0.3 2*1000 38*0.3 2*1000 38*0.3 2*1000 38*0.3 2*1000 38*0.3 2*1000 38*0.3 2*1000 38*0.3 2*1000 38*0.3 2*1000 38*0.3 2*1000 38*0.3 2*1000 38*0.3 2*1000 38*0.3 2*1000 38*0.3 2*1000 38*0.3 2*1000 38*0.3 2*1000 38*0.3 2*1000 38*0.3 2*1000 38*0.3 2*1000 38*0.3 2*1000 38*0.3 2*1000 38*0.3 2*1000 38*0.3 2*1000 38*0.3 2*1000 38*0.3 2*1000 38*0.3 2*1000 38*0.3 2*1000 38*0.3 2*1000 38*0.3 2*1000 38*0.3 2*1000 38*0.3 2*1000 38*0.3 2*1000 38*0.3 41*1000 41*1000 38*0.3 2*1000 38*0.3 2*1000 38*0.3 2*1000 38*0.3 2*1000 38*0.3 2*1000 38*0.3 2*1000 38*0.3 2*1000 38*0.3 2*1000 38*0.3 2*1000 38*0.3 2*1000 38*0.3 2*1000 38*0.3 2*1000 38*0.3 2*1000 38*0.3 2*1000 38*0.3 2*1000 38*0.3 2*1000 38*0.3 2*1000 38*0.3 2*1000 38*0.3 2*1000 38*0.3 2*1000 38*0.3 2*1000 38*0.3 2*1000 38*0.3 2*1000 38*0.3 2*1000 38*0.3 2*1000 38*0.3 2*1000 38*0.3 2*1000 38*0.3 2*1000 38*0.3 2*1000 38*0.3 2*1000 38*0.3 2*1000 38*0.3 2*1000 38*0.3 2*1000 38*0.3 2*1000 38*0.3 2*1000 38*0.3 2*1000 38*0.3 2*1000 38*0.3 41*1000 41*1000 38*0.3 2*1000 38*0.3 2*1000 38*0.3 2*1000 38*0.3 2*1000 38*0.3 2*1000 38*0.3 2*1000 38*0.3 2*1000 38*0.3 2*1000 38*0.3 2*1000 38*0.3 2*1000 38*0.3 2*1000 38*0.3 2*1000 38*0.3 2*1000 38*0.3 2*1000 38*0.3 2*1000 38*0.3 2*1000 38*0.3 2*1000 38*0.3 2*1000 38*0.3 2*1000 38*0.3 2*1000 38*0.3 2*1000 38*0.3 2*1000 38*0.3 2*1000 38*0.3 2*1000 38*0.3 2*1000 38*0.3 2*1000 38*0.3 2*1000 38*0.3 2*1000 38*0.3 2*1000 38*0.3 2*1000 38*0.3 2*1000 38*0.3 2*1000 38*0.3 2*1000 38*0.3 2*1000 38*0.3 2*1000 38*0.3 2*1000 38*0.3 2*1000 38*0.3 41*1000 41*1000 38*0.3 2*1000 38*0.3 2*1000 38*0.3 2*1000 38*0.3 2*1000 38*0.3 2*1000 38*0.3 2*1000 38*0.3 2*1000 38*0.3 2*1000 38*0.3 2*1000 38*0.3 2*1000 38*0.3 2*1000 38*0.3 2*1000 38*0.3 2*1000 38*0.3 2*1000 38*0.3 2*1000 38*0.3 2*1000 38*0.3 2*1000 38*0.3 2*1000 38*0.3 2*1000 38*0.3 2*1000 38*0.3 2*1000 38*0.3 2*1000 38*0.3 2*1000 38*0.3 2*1000 38*0.3 2*1000 38*0.3 2*1000 38*0.3 2*1000 38*0.3 2*1000 38*0.3 2*1000 38*0.3 2*1000 38*0.3 2*1000 38*0.3 2*1000 38*0.3 2*1000 38*0.3 2*1000 38*0.3 2*1000 38*0.3 2*1000 38*0.3 2*1000 38*0.3 41*1000  /

PERMX
16000*200 /

PERMY
16000*200 /

PERMZ
16000*20.0 /


ECHO

PROPS
-- -------------------------------------------------------------------------

PVTW
-- Item 1: pressure reference 
-- Item 2: water FVF 
-- Item 3: water compressibility 
-- Item 4: water viscosity (cp)
-- Item 5: water 'viscosibility' 

	320     1.026 4.68E-005      0.29        1* /


ROCK
-- Item 1: reference pressure 
-- Item 2: rock compressibility 

   320 1.5e-05
/

SWOF
-- Column 1: water saturation
-- Column 2: water relative permeability
-- Column 3: oil relative permeability when only oil and water are present
-- Column 4: water-oil capillary pressure 

             0           0           1           1.6
          0.12           0           1           1.5
         0.121           0           1           1.5
          0.14           0       0.997           1.5
          0.17           0        0.98           1.5
          0.24           0.0001         0.7           0.8
          0.32           0.011        0.35           0.3
          0.37           0.030         0.2           0.2
          0.42           0.049        0.09           0.1
          0.52           0.125       0.021           0
          0.57           0.192        0.01           0
          0.62           0.246       0.001           0
          0.72           0.420      0.0001           0
          0.82           0.640           0           0
             1      	    1           0           0
/

SGOF
             0           0           1           0
         0.001           0           1           0
          0.02           0       0.997           0
          0.05       0.005        0.98           0
          0.12       0.025         0.7           0
           0.2       0.075        0.35           0
          0.25       0.125         0.2           0
           0.3        0.19        0.09           0
           0.4        0.41       0.021           0
          0.45         0.6        0.01           0
           0.5        0.72       0.001           0
           0.6        0.87      0.0001           0
           0.7        0.94           0           0
          0.85        0.98           0           0
             1           1           0           0
/

DENSITY
 860 1010 0.9 /

PVTO
-- Column 1: dissolved gas-oil ratio
-- Column 2: bubble point pressure 
-- Column 3: oil FVF for saturated oil 
-- Column 4: oil viscosity for saturated oil (cP)
     0.25 	0.5     1.062      1.04 /
      4 	9      1.15     0.975 /
      8 	18     1.207      0.91 /
      16.5 	35     1.295      0.83 /
      28.25 	70     1.435     0.695 /
      34.5 	87       1.5     0.641 /
      41.25 	104     1.565      0.594 /
      72 	172.5     1.827     0.449
                310.5     1.726      0.605 /
/

PVDG
   1.01352580665 0.93575959     0.008
   18.250359078 0.067897116    0.0096
   35.48719153875 0.035225875    0.0112
   69.9608574735 0.017949812     0.014
   138.90818529 0.0090619321    0.0189
   173.3818583175 0.0072652665    0.0208
   207.8555212125 0.0060637464    0.0228
   276.802857135 0.0045534244    0.0268
   345.750182925 0.0036438624    0.0309
   621.5395164825 0.0021672279     0.047
/

SOLUTION
-- -------------------------------------------------------------------------

EQUIL
-- Item 1: datum depth
-- Item 2: pressure at datum depth 
-- Item 3: depth of water-oil contact
-- Item 4: oil-water capillary pressure at the water oil contact 
-- Item 5: depth of gas-oil contact
-- Item 6: gas-oil capillary pressure at gas-oil contact
-- Item 7: RSVD-table
-- Item 8: RVVD-table
-- Item 9: Set to 0 as this is the only value supported by OPM
 2500 320 2550 0 2400 0 1 1* 1*  /

   
RSVD
-- Dissolved GOR is initially constant with depth through the reservoir.
       2499.36   72
        2590.8   72
/

SUMMARY
-- -------------------------------------------------------------------------
RPTONLY
DATE
FGPR
FGPRF
FGPRS
FGPT
FGPTF
FGPTS
FLPR
FLPT
FOPR
FOPRF
FOPRS
FOPT
FOPTF
FOPTS
FWPR
FWPT
FGIR
FGIT
FOIR
FOIT
FWIR
FWIT
FVPR
FVPT
FVIR
FVIT
FGOR
FWCT
FGSAT
FOSAT
FWSAT
FGPV
FOPV
FWPV
FAQR
FAQT
FNQR
FNQT
FGIP
FGIPG
FGIPL
FOIP
FOIPG
FOIPL
FWIP
FRPV
FHPV
FOE
FOEW
FOEIW
FOEIG
FMWIN
FMWIP
FMWIT
FMWPP
FMWPR
FMWPT
FPR
FOVIS
FRS
RGIP
/
RGIPG
/
RGIPL
/
ROIP
/
ROIPG
/
ROIPL
/
RWIP
/
RHPV
/
RPR
/
RRPV
/
ROE
/
ROEIW
/
ROPR
/
ROPT
/
RWPR
/
RWPT
/
RWIR
/
RWIT
/
RGSAT
/
ROSAT
/
RWSAT
/
RRS
/
GGPR
/
GGPT
/
GLPR
/
GLPT
/
GOPR
/
GOPT
/
GWPR
/
GWPT
/
GGIR
/
GGIT
/
GOIR
/
GOIT
/
GWIR
/
GWIT
/
GGOR
/
GWCT
/
WGPT
/
WGPTF
/
WLPT
/
WOPT
/
WOPTF
/
WOPTS
/
WWPT
/
WVPT
/
WGIT
/
WOIT
/
WWIT
/
WVIT
/
WEFF
/
WGPR
/
WGPRF
/
WLPR
/
WOPR
/
WOPRF
/
WOPRS
/
WWPR
/
WVPR
/
WGIR
/
WOIR
/
WWIR
/
WVIR
/
WGOR
/
WWCT
/
WBHP
/
WBP
/
WBP4
/
WBP5
/
WBP9
/
WTHP
/
WTHT
/
WAPI
/
CGPT
/
CGPTF
/
CLPT

/
COPT
/
COPTS
/
CVPT
/
CWIT
/
CVIT
/
CPR
/
CTFAC
/
FGPRH
FGPTH
FLPRH
FLPTH
FOPRH
FOPTH
FWPRH
FWPTH
FGIRH
FGITH
FOIRH
FOITH
FWIRH
FWITH
FGORH
FWCTH
GGPRH
/
GGPTH
/
GLPRH
/
GLPTH
/
GOPRH
/
GOPTH
/
GWPRH
/
GWPTH
/
GGIRH
/
GGITH
/
GOIRH
/
GOITH
/
GWIRH
/
GWITH
/
GGORH
/
GWCTH
/
WGPRH
/
WGPTH
/
WLPRH
/
WLPTH
/
WOPRH
/
WOPTH
/
WWPRH
/
WWPTH
/
WGIRH
/
WGITH
/
WOIRH
/
WOITH
/
WWIRH
/
WWITH
/
WGORH
/
WWCTH
/
WBHPH
/
WTHPH
/


SCHEDULE
-- -------------------------------------------------------------------------
RPTSCHED
	'PRES' 'SGAS' 'RS' 'WELLS' /

RPTRST
	'BASIC=1' /

-- If no resolution (i.e. case 1). the two following lines must be added:
DRSDT
 0 /
-- if DRSDT is set to 0, GOR cannot rise and free gas does not
-- dissolve in undersaturated oil -> constant bubble point pressure

WELSPECS
-- Item #: 1	 2	3	4	5	 6
P1 G1 20 11 * OIL /
/


COMPDAT
-- Item #: 1	2	3	4	5	6	7	8	9
P1 20 11 6 6 OPEN	1*	1* 0.073 1* 0 1* Y /
P1 20 12 6 6 OPEN	1*	1* 0.073 1* 0 1* Y /
P1 20 13 6 6 OPEN	1*	1* 0.073 1* 0 1* Y /
P1 20 14 6 6 OPEN	1*	1* 0.073 1* 0 1* Y /
P1 20 15 6 6 OPEN	1*	1* 0.073 1* 0 1* Y /
P1 20 16 6 6 OPEN	1*	1* 0.073 1* 0 1* Y /
P1 20 17 6 6 OPEN	1*	1* 0.073 1* 0 1* Y /
P1 20 18 6 6 OPEN	1*	1* 0.073 1* 0 1* Y /
P1 20 19 6 6 OPEN	1*	1* 0.073 1* 0 1* Y /
P1 20 20 6 6 OPEN	1*	1* 0.073 1* 0 1* Y /
P1 20 21 6 6 OPEN	1*	1* 0.073 1* 0 1* Y /
P1 20 22 6 6 OPEN	1*	1* 0.073 1* 0 1* Y /
P1 20 23 6 6 OPEN	1*	1* 0.073 1* 0 1* Y /
P1 20 24 6 6 OPEN	1*	1* 0.073 1* 0 1* Y /
P1 20 25 6 6 OPEN	1*	1* 0.073 1* 0 1* Y /