---------------------------------------------------------------------------
-------------------------- RIENM Corporation ------------------------------
---------------------------------------------------------------------------

RUNSPEC
-- -------------------------------------------------------------------------

TITLE
   RIENM_CORP - CASE 1

DIMENS
   40 40 10 /

EQLDIMS
/

TABDIMS
/

OIL
WATER


METRIC

START
	1 'JAN' 2020 /

WELLDIMS
-- Item 1: maximum number of wells in the model
-- Item 2: maximum number of grid blocks connected to any one well
-- Item 3: maximum number of groups in the model
-- Item 4: maximum number of wells in any one group
   1000 10000 10 100 /

UNIFOUT

GRID

INIT


-- -------------------------------------------------------------------------
NOECHO

DX 
96.169 
84.805 
74.784 
65.947 
58.154 
51.283 
45.223 
39.879 
35.167 
31.011 
27.347 
24.115 
21.266 
18.753 
16.537 
14.583 
12.86 
11.34 
10 
10 
10 
10 
11.34 
12.86 
14.583 
16.537 
18.753 
21.266 
24.115 
27.347 
31.011 
35.167 
39.879 
45.223 
51.283 
58.154 
65.947 
74.784 
84.805 
96.169 
96.169 
84.805 
74.784 
65.947 
58.154 
51.283 
45.223 
39.879 
35.167 
31.011 
27.347 
24.115 
21.266 
18.753 
16.537 
14.583 
12.86 
11.34 
10 
10 
10 
10 
11.34 
12.86 
14.583 
16.537 
18.753 
21.266 
24.115 
27.347 
31.011 
35.167 
39.879 
45.223 
51.283 
58.154 
65.947 
74.784 
84.805 
96.169 
96.169 
84.805 
74.784 
65.947 
58.154 
51.283 
45.223 
39.879 
35.167 
31.011 
27.347 
24.115 
21.266 
18.753 
16.537 
14.583 
12.86 
11.34 
10 
10 
10 
10 
11.34 
12.86 
14.583 
16.537 
18.753 
21.266 
24.115 
27.347 
31.011 
35.167 
39.879 
45.223 
51.283 
58.154 
65.947 
74.784 
84.805 
96.169 
96.169 
84.805 
74.784 
65.947 
58.154 
51.283 
45.223 
39.879 
35.167 
31.011 
27.347 
24.115 
21.266 
18.753 
16.537 
14.583 
12.86 
11.34 
10 
10 
10 
10 
11.34 
12.86 
14.583 
16.537 
18.753 
21.266 
24.115 
27.347 
31.011 
35.167 
39.879 
45.223 
51.283 
58.154 
65.947 
74.784 
84.805 
96.169 
96.169 
84.805 
74.784 
65.947 
58.154 
51.283 
45.223 
39.879 
35.167 
31.011 
27.347 
24.115 
21.266 
18.753 
16.537 
14.583 
12.86 
11.34 
10 
10 
10 
10 
11.34 
12.86 
14.583 
16.537 
18.753 
21.266 
24.115 
27.347 
31.011 
35.167 
39.879 
45.223 
51.283 
58.154 
65.947 
74.784 
84.805 
96.169 
96.169 
84.805 
74.784 
65.947 
58.154 
51.283 
45.223 
39.879 
35.167 
31.011 
27.347 
24.115 
21.266 
18.753 
16.537 
14.583 
12.86 
11.34 
10 
10 
10 
10 
11.34 
12.86 
14.583 
16.537 
18.753 
21.266 
24.115 
27.347 
31.011 
35.167 
39.879 
45.223 
51.283 
58.154 
65.947 
74.784 
84.805 
96.169 
96.169 
84.805 
74.784 
65.947 
58.154 
51.283 
45.223 
39.879 
35.167 
31.011 
27.347 
24.115 
21.266 
18.753 
16.537 
14.583 
12.86 
11.34 
10 
10 
10 
10 
11.34 
12.86 
14.583 
16.537 
18.753 
21.266 
24.115 
27.347 
31.011 
35.167 
39.879 
45.223 
51.283 
58.154 
65.947 
74.784 
84.805 
96.169 
96.169 
84.805 
74.784 
65.947 
58.154 
51.283 
45.223 
39.879 
35.167 
31.011 
27.347 
24.115 
21.266 
18.753 
16.537 
14.583 
12.86 
11.34 
10 
10 
10 
10 
11.34 
12.86 
14.583 
16.537 
18.753 
21.266 
24.115 
27.347 
31.011 
35.167 
39.879 
45.223 
51.283 
58.154 
65.947 
74.784 
84.805 
96.169 
96.169 
84.805 
74.784 
65.947 
58.154 
51.283 
45.223 
39.879 
35.167 
31.011 
27.347 
24.115 
21.266 
18.753 
16.537 
14.583 
12.86 
11.34 
10 
10 
10 
10 
11.34 
12.86 
14.583 
16.537 
18.753 
21.266 
24.115 
27.347 
31.011 
35.167 
39.879 
45.223 
51.283 
58.154 
65.947 
74.784 
84.805 
96.169 
96.169 
84.805 
74.784 
65.947 
58.154 
51.283 
45.223 
39.879 
35.167 
31.011 
27.347 
24.115 
21.266 
18.753 
16.537 
14.583 
12.86 
11.34 
10 
10 
10 
10 
11.34 
12.86 
14.583 
16.537 
18.753 
21.266 
24.115 
27.347 
31.011 
35.167 
39.879 
45.223 
51.283 
58.154 
65.947 
74.784 
84.805 
96.169 
96.169 
84.805 
74.784 
65.947 
58.154 
51.283 
45.223 
39.879 
35.167 
31.011 
27.347 
24.115 
21.266 
18.753 
16.537 
14.583 
12.86 
11.34 
10 
10 
10 
10 
11.34 
12.86 
14.583 
16.537 
18.753 
21.266 
24.115 
27.347 
31.011 
35.167 
39.879 
45.223 
51.283 
58.154 
65.947 
74.784 
84.805 
96.169 
96.169 
84.805 
74.784 
65.947 
58.154 
51.283 
45.223 
39.879 
35.167 
31.011 
27.347 
24.115 
21.266 
18.753 
16.537 
14.583 
12.86 
11.34 
10 
10 
10 
10 
11.34 
12.86 
14.583 
16.537 
18.753 
21.266 
24.115 
27.347 
31.011 
35.167 
39.879 
45.223 
51.283 
58.154 
65.947 
74.784 
84.805 
96.169 
96.169 
84.805 
74.784 
65.947 
58.154 
51.283 
45.223 
39.879 
35.167 
31.011 
27.347 
24.115 
21.266 
18.753 
16.537 
14.583 
12.86 
11.34 
10 
10 
10 
10 
11.34 
12.86 
14.583 
16.537 
18.753 
21.266 
24.115 
27.347 
31.011 
35.167 
39.879 
45.223 
51.283 
58.154 
65.947 
74.784 
84.805 
96.169 
96.169 
84.805 
74.784 
65.947 
58.154 
51.283 
45.223 
39.879 
35.167 
31.011 
27.347 
24.115 
21.266 
18.753 
16.537 
14.583 
12.86 
11.34 
10 
10 
10 
10 
11.34 
12.86 
14.583 
16.537 
18.753 
21.266 
24.115 
27.347 
31.011 
35.167 
39.879 
45.223 
51.283 
58.154 
65.947 
74.784 
84.805 
96.169 
96.169 
84.805 
74.784 
65.947 
58.154 
51.283 
45.223 
39.879 
35.167 
31.011 
27.347 
24.115 
21.266 
18.753 
16.537 
14.583 
12.86 
11.34 
10 
10 
10 
10 
11.34 
12.86 
14.583 
16.537 
18.753 
21.266 
24.115 
27.347 
31.011 
35.167 
39.879 
45.223 
51.283 
58.154 
65.947 
74.784 
84.805 
96.169 
96.169 
84.805 
74.784 
65.947 
58.154 
51.283 
45.223 
39.879 
35.167 
31.011 
27.347 
24.115 
21.266 
18.753 
16.537 
14.583 
12.86 
11.34 
10 
10 
10 
10 
11.34 
12.86 
14.583 
16.537 
18.753 
21.266 
24.115 
27.347 
31.011 
35.167 
39.879 
45.223 
51.283 
58.154 
65.947 
74.784 
84.805 
96.169 
96.169 
84.805 
74.784 
65.947 
58.154 
51.283 
45.223 
39.879 
35.167 
31.011 
27.347 
24.115 
21.266 
18.753 
16.537 
14.583 
12.86 
11.34 
10 
10 
10 
10 
11.34 
12.86 
14.583 
16.537 
18.753 
21.266 
24.115 
27.347 
31.011 
35.167 
39.879 
45.223 
51.283 
58.154 
65.947 
74.784 
84.805 
96.169 
96.169 
84.805 
74.784 
65.947 
58.154 
51.283 
45.223 
39.879 
35.167 
31.011 
27.347 
24.115 
21.266 
18.753 
16.537 
14.583 
12.86 
11.34 
10 
10 
10 
10 
11.34 
12.86 
14.583 
16.537 
18.753 
21.266 
24.115 
27.347 
31.011 
35.167 
39.879 
45.223 
51.283 
58.154 
65.947 
74.784 
84.805 
96.169 
96.169 
84.805 
74.784 
65.947 
58.154 
51.283 
45.223 
39.879 
35.167 
31.011 
27.347 
24.115 
21.266 
18.753 
16.537 
14.583 
12.86 
11.34 
10 
10 
10 
10 
11.34 
12.86 
14.583 
16.537 
18.753 
21.266 
24.115 
27.347 
31.011 
35.167 
39.879 
45.223 
51.283 
58.154 
65.947 
74.784 
84.805 
96.169 
96.169 
84.805 
74.784 
65.947 
58.154 
51.283 
45.223 
39.879 
35.167 
31.011 
27.347 
24.115 
21.266 
18.753 
16.537 
14.583 
12.86 
11.34 
10 
10 
10 
10 
11.34 
12.86 
14.583 
16.537 
18.753 
21.266 
24.115 
27.347 
31.011 
35.167 
39.879 
45.223 
51.283 
58.154 
65.947 
74.784 
84.805 
96.169 
96.169 
84.805 
74.784 
65.947 
58.154 
51.283 
45.223 
39.879 
35.167 
31.011 
27.347 
24.115 
21.266 
18.753 
16.537 
14.583 
12.86 
11.34 
10 
10 
10 
10 
11.34 
12.86 
14.583 
16.537 
18.753 
21.266 
24.115 
27.347 
31.011 
35.167 
39.879 
45.223 
51.283 
58.154 
65.947 
74.784 
84.805 
96.169 
96.169 
84.805 
74.784 
65.947 
58.154 
51.283 
45.223 
39.879 
35.167 
31.011 
27.347 
24.115 
21.266 
18.753 
16.537 
14.583 
12.86 
11.34 
10 
10 
10 
10 
11.34 
12.86 
14.583 
16.537 
18.753 
21.266 
24.115 
27.347 
31.011 
35.167 
39.879 
45.223 
51.283 
58.154 
65.947 
74.784 
84.805 
96.169 
96.169 
84.805 
74.784 
65.947 
58.154 
51.283 
45.223 
39.879 
35.167 
31.011 
27.347 
24.115 
21.266 
18.753 
16.537 
14.583 
12.86 
11.34 
10 
10 
10 
10 
11.34 
12.86 
14.583 
16.537 
18.753 
21.266 
24.115 
27.347 
31.011 
35.167 
39.879 
45.223 
51.283 
58.154 
65.947 
74.784 
84.805 
96.169 
96.169 
84.805 
74.784 
65.947 
58.154 
51.283 
45.223 
39.879 
35.167 
31.011 
27.347 
24.115 
21.266 
18.753 
16.537 
14.583 
12.86 
11.34 
10 
10 
10 
10 
11.34 
12.86 
14.583 
16.537 
18.753 
21.266 
24.115 
27.347 
31.011 
35.167 
39.879 
45.223 
51.283 
58.154 
65.947 
74.784 
84.805 
96.169 
96.169 
84.805 
74.784 
65.947 
58.154 
51.283 
45.223 
39.879 
35.167 
31.011 
27.347 
24.115 
21.266 
18.753 
16.537 
14.583 
12.86 
11.34 
10 
10 
10 
10 
11.34 
12.86 
14.583 
16.537 
18.753 
21.266 
24.115 
27.347 
31.011 
35.167 
39.879 
45.223 
51.283 
58.154 
65.947 
74.784 
84.805 
96.169 
96.169 
84.805 
74.784 
65.947 
58.154 
51.283 
45.223 
39.879 
35.167 
31.011 
27.347 
24.115 
21.266 
18.753 
16.537 
14.583 
12.86 
11.34 
10 
10 
10 
10 
11.34 
12.86 
14.583 
16.537 
18.753 
21.266 
24.115 
27.347 
31.011 
35.167 
39.879 
45.223 
51.283 
58.154 
65.947 
74.784 
84.805 
96.169 
96.169 
84.805 
74.784 
65.947 
58.154 
51.283 
45.223 
39.879 
35.167 
31.011 
27.347 
24.115 
21.266 
18.753 
16.537 
14.583 
12.86 
11.34 
10 
10 
10 
10 
11.34 
12.86 
14.583 
16.537 
18.753 
21.266 
24.115 
27.347 
31.011 
35.167 
39.879 
45.223 
51.283 
58.154 
65.947 
74.784 
84.805 
96.169 
96.169 
84.805 
74.784 
65.947 
58.154 
51.283 
45.223 
39.879 
35.167 
31.011 
27.347 
24.115 
21.266 
18.753 
16.537 
14.583 
12.86 
11.34 
10 
10 
10 
10 
11.34 
12.86 
14.583 
16.537 
18.753 
21.266 
24.115 
27.347 
31.011 
35.167 
39.879 
45.223 
51.283 
58.154 
65.947 
74.784 
84.805 
96.169 
96.169 
84.805 
74.784 
65.947 
58.154 
51.283 
45.223 
39.879 
35.167 
31.011 
27.347 
24.115 
21.266 
18.753 
16.537 
14.583 
12.86 
11.34 
10 
10 
10 
10 
11.34 
12.86 
14.583 
16.537 
18.753 
21.266 
24.115 
27.347 
31.011 
35.167 
39.879 
45.223 
51.283 
58.154 
65.947 
74.784 
84.805 
96.169 
96.169 
84.805 
74.784 
65.947 
58.154 
51.283 
45.223 
39.879 
35.167 
31.011 
27.347 
24.115 
21.266 
18.753 
16.537 
14.583 
12.86 
11.34 
10 
10 
10 
10 
11.34 
12.86 
14.583 
16.537 
18.753 
21.266 
24.115 
27.347 
31.011 
35.167 
39.879 
45.223 
51.283 
58.154 
65.947 
74.784 
84.805 
96.169 
96.169 
84.805 
74.784 
65.947 
58.154 
51.283 
45.223 
39.879 
35.167 
31.011 
27.347 
24.115 
21.266 
18.753 
16.537 
14.583 
12.86 
11.34 
10 
10 
10 
10 
11.34 
12.86 
14.583 
16.537 
18.753 
21.266 
24.115 
27.347 
31.011 
35.167 
39.879 
45.223 
51.283 
58.154 
65.947 
74.784 
84.805 
96.169 
96.169 
84.805 
74.784 
65.947 
58.154 
51.283 
45.223 
39.879 
35.167 
31.011 
27.347 
24.115 
21.266 
18.753 
16.537 
14.583 
12.86 
11.34 
10 
10 
10 
10 
11.34 
12.86 
14.583 
16.537 
18.753 
21.266 
24.115 
27.347 
31.011 
35.167 
39.879 
45.223 
51.283 
58.154 
65.947 
74.784 
84.805 
96.169 
96.169 
84.805 
74.784 
65.947 
58.154 
51.283 
45.223 
39.879 
35.167 
31.011 
27.347 
24.115 
21.266 
18.753 
16.537 
14.583 
12.86 
11.34 
10 
10 
10 
10 
11.34 
12.86 
14.583 
16.537 
18.753 
21.266 
24.115 
27.347 
31.011 
35.167 
39.879 
45.223 
51.283 
58.154 
65.947 
74.784 
84.805 
96.169 
96.169 
84.805 
74.784 
65.947 
58.154 
51.283 
45.223 
39.879 
35.167 
31.011 
27.347 
24.115 
21.266 
18.753 
16.537 
14.583 
12.86 
11.34 
10 
10 
10 
10 
11.34 
12.86 
14.583 
16.537 
18.753 
21.266 
24.115 
27.347 
31.011 
35.167 
39.879 
45.223 
51.283 
58.154 
65.947 
74.784 
84.805 
96.169 
96.169 
84.805 
74.784 
65.947 
58.154 
51.283 
45.223 
39.879 
35.167 
31.011 
27.347 
24.115 
21.266 
18.753 
16.537 
14.583 
12.86 
11.34 
10 
10 
10 
10 
11.34 
12.86 
14.583 
16.537 
18.753 
21.266 
24.115 
27.347 
31.011 
35.167 
39.879 
45.223 
51.283 
58.154 
65.947 
74.784 
84.805 
96.169 
96.169 
84.805 
74.784 
65.947 
58.154 
51.283 
45.223 
39.879 
35.167 
31.011 
27.347 
24.115 
21.266 
18.753 
16.537 
14.583 
12.86 
11.34 
10 
10 
10 
10 
11.34 
12.86 
14.583 
16.537 
18.753 
21.266 
24.115 
27.347 
31.011 
35.167 
39.879 
45.223 
51.283 
58.154 
65.947 
74.784 
84.805 
96.169 
96.169 
84.805 
74.784 
65.947 
58.154 
51.283 
45.223 
39.879 
35.167 
31.011 
27.347 
24.115 
21.266 
18.753 
16.537 
14.583 
12.86 
11.34 
10 
10 
10 
10 
11.34 
12.86 
14.583 
16.537 
18.753 
21.266 
24.115 
27.347 
31.011 
35.167 
39.879 
45.223 
51.283 
58.154 
65.947 
74.784 
84.805 
96.169 
96.169 
84.805 
74.784 
65.947 
58.154 
51.283 
45.223 
39.879 
35.167 
31.011 
27.347 
24.115 
21.266 
18.753 
16.537 
14.583 
12.86 
11.34 
10 
10 
10 
10 
11.34 
12.86 
14.583 
16.537 
18.753 
21.266 
24.115 
27.347 
31.011 
35.167 
39.879 
45.223 
51.283 
58.154 
65.947 
74.784 
84.805 
96.169 
96.169 
84.805 
74.784 
65.947 
58.154 
51.283 
45.223 
39.879 
35.167 
31.011 
27.347 
24.115 
21.266 
18.753 
16.537 
14.583 
12.86 
11.34 
10 
10 
10 
10 
11.34 
12.86 
14.583 
16.537 
18.753 
21.266 
24.115 
27.347 
31.011 
35.167 
39.879 
45.223 
51.283 
58.154 
65.947 
74.784 
84.805 
96.169 
96.169 
84.805 
74.784 
65.947 
58.154 
51.283 
45.223 
39.879 
35.167 
31.011 
27.347 
24.115 
21.266 
18.753 
16.537 
14.583 
12.86 
11.34 
10 
10 
10 
10 
11.34 
12.86 
14.583 
16.537 
18.753 
21.266 
24.115 
27.347 
31.011 
35.167 
39.879 
45.223 
51.283 
58.154 
65.947 
74.784 
84.805 
96.169 
/

DY
168.049 
168.049 
168.049 
168.049 
168.049 
168.049 
168.049 
168.049 
168.049 
168.049 
168.049 
168.049 
168.049 
168.049 
168.049 
168.049 
168.049 
168.049 
168.049 
168.049 
168.049 
168.049 
168.049 
168.049 
168.049 
168.049 
168.049 
168.049 
168.049 
168.049 
168.049 
168.049 
168.049 
168.049 
168.049 
168.049 
168.049 
168.049 
168.049 
168.049 
126.734 
126.734 
126.734 
126.734 
126.734 
126.734 
126.734 
126.734 
126.734 
126.734 
126.734 
126.734 
126.734 
126.734 
126.734 
126.734 
126.734 
126.734 
126.734 
126.734 
126.734 
126.734 
126.734 
126.734 
126.734 
126.734 
126.734 
126.734 
126.734 
126.734 
126.734 
126.734 
126.734 
126.734 
126.734 
126.734 
126.734 
126.734 
126.734 
126.734 
95.576 
95.576 
95.576 
95.576 
95.576 
95.576 
95.576 
95.576 
95.576 
95.576 
95.576 
95.576 
95.576 
95.576 
95.576 
95.576 
95.576 
95.576 
95.576 
95.576 
95.576 
95.576 
95.576 
95.576 
95.576 
95.576 
95.576 
95.576 
95.576 
95.576 
95.576 
95.576 
95.576 
95.576 
95.576 
95.576 
95.576 
95.576 
95.576 
95.576 
72.078 
72.078 
72.078 
72.078 
72.078 
72.078 
72.078 
72.078 
72.078 
72.078 
72.078 
72.078 
72.078 
72.078 
72.078 
72.078 
72.078 
72.078 
72.078 
72.078 
72.078 
72.078 
72.078 
72.078 
72.078 
72.078 
72.078 
72.078 
72.078 
72.078 
72.078 
72.078 
72.078 
72.078 
72.078 
72.078 
72.078 
72.078 
72.078 
72.078 
54.358 
54.358 
54.358 
54.358 
54.358 
54.358 
54.358 
54.358 
54.358 
54.358 
54.358 
54.358 
54.358 
54.358 
54.358 
54.358 
54.358 
54.358 
54.358 
54.358 
54.358 
54.358 
54.358 
54.358 
54.358 
54.358 
54.358 
54.358 
54.358 
54.358 
54.358 
54.358 
54.358 
54.358 
54.358 
54.358 
54.358 
54.358 
54.358 
54.358 
40.994 
40.994 
40.994 
40.994 
40.994 
40.994 
40.994 
40.994 
40.994 
40.994 
40.994 
40.994 
40.994 
40.994 
40.994 
40.994 
40.994 
40.994 
40.994 
40.994 
40.994 
40.994 
40.994 
40.994 
40.994 
40.994 
40.994 
40.994 
40.994 
40.994 
40.994 
40.994 
40.994 
40.994 
40.994 
40.994 
40.994 
40.994 
40.994 
40.994 
30.915 
30.915 
30.915 
30.915 
30.915 
30.915 
30.915 
30.915 
30.915 
30.915 
30.915 
30.915 
30.915 
30.915 
30.915 
30.915 
30.915 
30.915 
30.915 
30.915 
30.915 
30.915 
30.915 
30.915 
30.915 
30.915 
30.915 
30.915 
30.915 
30.915 
30.915 
30.915 
30.915 
30.915 
30.915 
30.915 
30.915 
30.915 
30.915 
30.915 
23.315 
23.315 
23.315 
23.315 
23.315 
23.315 
23.315 
23.315 
23.315 
23.315 
23.315 
23.315 
23.315 
23.315 
23.315 
23.315 
23.315 
23.315 
23.315 
23.315 
23.315 
23.315 
23.315 
23.315 
23.315 
23.315 
23.315 
23.315 
23.315 
23.315 
23.315 
23.315 
23.315 
23.315 
23.315 
23.315 
23.315 
23.315 
23.315 
23.315 
17.583 
17.583 
17.583 
17.583 
17.583 
17.583 
17.583 
17.583 
17.583 
17.583 
17.583 
17.583 
17.583 
17.583 
17.583 
17.583 
17.583 
17.583 
17.583 
17.583 
17.583 
17.583 
17.583 
17.583 
17.583 
17.583 
17.583 
17.583 
17.583 
17.583 
17.583 
17.583 
17.583 
17.583 
17.583 
17.583 
17.583 
17.583 
17.583 
17.583 
13.26 
13.26 
13.26 
13.26 
13.26 
13.26 
13.26 
13.26 
13.26 
13.26 
13.26 
13.26 
13.26 
13.26 
13.26 
13.26 
13.26 
13.26 
13.26 
13.26 
13.26 
13.26 
13.26 
13.26 
13.26 
13.26 
13.26 
13.26 
13.26 
13.26 
13.26 
13.26 
13.26 
13.26 
13.26 
13.26 
13.26 
13.26 
13.26 
13.26 
10 
10 
10 
10 
10 
10 
10 
10 
10 
10 
10 
10 
10 
10 
10 
10 
10 
10 
10 
10 
10 
10 
10 
10 
10 
10 
10 
10 
10 
10 
10 
10 
10 
10 
10 
10 
10 
10 
10 
10 
10 
10 
10 
10 
10 
10 
10 
10 
10 
10 
10 
10 
10 
10 
10 
10 
10 
10 
10 
10 
10 
10 
10 
10 
10 
10 
10 
10 
10 
10 
10 
10 
10 
10 
10 
10 
10 
10 
10 
10 
10 
10 
10 
10 
10 
10 
10 
10 
10 
10 
10 
10 
10 
10 
10 
10 
10 
10 
10 
10 
10 
10 
10 
10 
10 
10 
10 
10 
10 
10 
10 
10 
10 
10 
10 
10 
10 
10 
10 
10 
10 
10 
10 
10 
10 
10 
10 
10 
10 
10 
10 
10 
10 
10 
10 
10 
10 
10 
10 
10 
10 
10 
10 
10 
10 
10 
10 
10 
10 
10 
10 
10 
10 
10 
10 
10 
10 
10 
10 
10 
10 
10 
10 
10 
10 
10 
10 
10 
10 
10 
10 
10 
10 
10 
10 
10 
10 
10 
10 
10 
10 
10 
10 
10 
10 
10 
10 
10 
10 
10 
10 
10 
10 
10 
10 
10 
10 
10 
10 
10 
10 
10 
10 
10 
10 
10 
10 
10 
10 
10 
10 
10 
10 
10 
10 
10 
10 
10 
10 
10 
10 
10 
10 
10 
10 
10 
10 
10 
10 
10 
10 
10 
10 
10 
10 
10 
10 
10 
10 
10 
10 
10 
10 
10 
10 
10 
10 
10 
10 
10 
10 
10 
10 
10 
10 
10 
10 
10 
10 
10 
10 
10 
10 
10 
10 
10 
10 
10 
10 
10 
10 
10 
10 
10 
10 
10 
10 
10 
10 
10 
10 
10 
10 
10 
10 
10 
10 
10 
10 
10 
10 
10 
10 
10 
10 
10 
10 
10 
10 
10 
10 
10 
10 
10 
10 
10 
10 
10 
10 
10 
10 
10 
10 
10 
10 
10 
10 
10 
10 
10 
10 
10 
10 
10 
10 
10 
10 
10 
10 
10 
10 
10 
10 
10 
10 
10 
10 
10 
10 
10 
10 
10 
10 
10 
10 
10 
10 
10 
10 
10 
10 
10 
10 
10 
10 
10 
10 
10 
10 
10 
10 
10 
10 
10 
10 
10 
10 
10 
10 
10 
10 
10 
10 
10 
10 
10 
10 
10 
10 
10 
10 
10 
10 
10 
10 
10 
10 
10 
10 
10 
10 
10 
10 
10 
10 
10 
10 
10 
10 
10 
10 
10 
10 
10 
10 
10 
10 
10 
10 
10 
10 
10 
10 
10 
10 
10 
10 
10 
10 
10 
10 
10 
10 
10 
10 
10 
10 
10 
10 
10 
10 
10 
10 
10 
10 
10 
10 
10 
10 
10 
10 
10 
10 
10 
10 
10 
10 
10 
10 
10 
10 
10 
10 
10 
10 
10 
10 
10 
10 
10 
10 
10 
10 
10 
10 
10 
10 
10 
10 
10 
10 
10 
10 
10 
10 
10 
10 
10 
10 
10 
10 
10 
10 
10 
10 
10 
10 
10 
10 
10 
10 
10 
10 
10 
10 
10 
10 
10 
10 
10 
10 
10 
10 
10 
10 
10 
10 
10 
10 
10 
10 
10 
10 
10 
10 
10 
10 
10 
10 
10 
10 
10 
10 
10 
10 
10 
10 
10 
10 
10 
10 
10 
10 
10 
10 
10 
10 
10 
10 
10 
10 
10 
10 
10 
10 
10 
10 
10 
10 
10 
10 
10 
10 
10 
10 
10 
10 
10 
10 
10 
10 
10 
10 
10 
10 
10 
10 
10 
10 
10 
10 
10 
10 
10 
10 
10 
10 
10 
10 
10 
10 
10 
10 
10 
10 
10 
10 
10 
10 
10 
10 
10 
10 
10 
10 
10 
10 
10 
10 
10 
10 
10 
10 
10 
10 
10 
10 
10 
10 
10 
10 
10 
10 
10 
10 
10 
10 
10 
10 
10 
10 
10 
10 
10 
10 
10 
10 
10 
10 
10 
10 
10 
10 
10 
10 
10 
10 
10 
10 
10 
10 
10 
10 
10 
10 
10 
10 
10 
10 
10 
10 
10 
10 
10 
10 
10 
10 
10 
10 
10 
10 
10 
10 
10 
10 
10 
10 
10 
10 
10 
10 
10 
10 
10 
10 
10 
10 
10 
10 
10 
10 
10 
10 
10 
10 
10 
10 
10 
10 
10 
10 
10 
10 
10 
10 
10 
10 
10 
10 
10 
10 
10 
10 
10 
10 
10 
10 
10 
10 
10 
10 
10 
10 
10 
10 
10 
10 
10 
10 
10 
10 
10 
10 
10 
10 
10 
10 
10 
10 
10 
10 
10 
10 
10 
10 
10 
10 
10 
10 
10 
10 
10 
10 
10 
10 
10 
10 
10 
10 
10 
10 
10 
10 
10 
10 
10 
10 
10 
10 
10 
10 
10 
10 
10 
10 
10 
10 
10 
10 
10 
10 
10 
10 
10 
10 
10 
10 
10 
10 
10 
10 
10 
10 
10 
10 
10 
10 
10 
10 
10 
10 
10 
10 
10 
10 
10 
10 
10 
10 
10 
13.26 
13.26 
13.26 
13.26 
13.26 
13.26 
13.26 
13.26 
13.26 
13.26 
13.26 
13.26 
13.26 
13.26 
13.26 
13.26 
13.26 
13.26 
13.26 
13.26 
13.26 
13.26 
13.26 
13.26 
13.26 
13.26 
13.26 
13.26 
13.26 
13.26 
13.26 
13.26 
13.26 
13.26 
13.26 
13.26 
13.26 
13.26 
13.26 
13.26 
17.583 
17.583 
17.583 
17.583 
17.583 
17.583 
17.583 
17.583 
17.583 
17.583 
17.583 
17.583 
17.583 
17.583 
17.583 
17.583 
17.583 
17.583 
17.583 
17.583 
17.583 
17.583 
17.583 
17.583 
17.583 
17.583 
17.583 
17.583 
17.583 
17.583 
17.583 
17.583 
17.583 
17.583 
17.583 
17.583 
17.583 
17.583 
17.583 
17.583 
23.315 
23.315 
23.315 
23.315 
23.315 
23.315 
23.315 
23.315 
23.315 
23.315 
23.315 
23.315 
23.315 
23.315 
23.315 
23.315 
23.315 
23.315 
23.315 
23.315 
23.315 
23.315 
23.315 
23.315 
23.315 
23.315 
23.315 
23.315 
23.315 
23.315 
23.315 
23.315 
23.315 
23.315 
23.315 
23.315 
23.315 
23.315 
23.315 
23.315 
30.915 
30.915 
30.915 
30.915 
30.915 
30.915 
30.915 
30.915 
30.915 
30.915 
30.915 
30.915 
30.915 
30.915 
30.915 
30.915 
30.915 
30.915 
30.915 
30.915 
30.915 
30.915 
30.915 
30.915 
30.915 
30.915 
30.915 
30.915 
30.915 
30.915 
30.915 
30.915 
30.915 
30.915 
30.915 
30.915 
30.915 
30.915 
30.915 
30.915 
40.994 
40.994 
40.994 
40.994 
40.994 
40.994 
40.994 
40.994 
40.994 
40.994 
40.994 
40.994 
40.994 
40.994 
40.994 
40.994 
40.994 
40.994 
40.994 
40.994 
40.994 
40.994 
40.994 
40.994 
40.994 
40.994 
40.994 
40.994 
40.994 
40.994 
40.994 
40.994 
40.994 
40.994 
40.994 
40.994 
40.994 
40.994 
40.994 
40.994 
54.358 
54.358 
54.358 
54.358 
54.358 
54.358 
54.358 
54.358 
54.358 
54.358 
54.358 
54.358 
54.358 
54.358 
54.358 
54.358 
54.358 
54.358 
54.358 
54.358 
54.358 
54.358 
54.358 
54.358 
54.358 
54.358 
54.358 
54.358 
54.358 
54.358 
54.358 
54.358 
54.358 
54.358 
54.358 
54.358 
54.358 
54.358 
54.358 
54.358 
72.078 
72.078 
72.078 
72.078 
72.078 
72.078 
72.078 
72.078 
72.078 
72.078 
72.078 
72.078 
72.078 
72.078 
72.078 
72.078 
72.078 
72.078 
72.078 
72.078 
72.078 
72.078 
72.078 
72.078 
72.078 
72.078 
72.078 
72.078 
72.078 
72.078 
72.078 
72.078 
72.078 
72.078 
72.078 
72.078 
72.078 
72.078 
72.078 
72.078 
95.576 
95.576 
95.576 
95.576 
95.576 
95.576 
95.576 
95.576 
95.576 
95.576 
95.576 
95.576 
95.576 
95.576 
95.576 
95.576 
95.576 
95.576 
95.576 
95.576 
95.576 
95.576 
95.576 
95.576 
95.576 
95.576 
95.576 
95.576 
95.576 
95.576 
95.576 
95.576 
95.576 
95.576 
95.576 
95.576 
95.576 
95.576 
95.576 
95.576 
126.734 
126.734 
126.734 
126.734 
126.734 
126.734 
126.734 
126.734 
126.734 
126.734 
126.734 
126.734 
126.734 
126.734 
126.734 
126.734 
126.734 
126.734 
126.734 
126.734 
126.734 
126.734 
126.734 
126.734 
126.734 
126.734 
126.734 
126.734 
126.734 
126.734 
126.734 
126.734 
126.734 
126.734 
126.734 
126.734 
126.734 
126.734 
126.734 
126.734 
168.049 
168.049 
168.049 
168.049 
168.049 
168.049 
168.049 
168.049 
168.049 
168.049 
168.049 
168.049 
168.049 
168.049 
168.049 
168.049 
168.049 
168.049 
168.049 
168.049 
168.049 
168.049 
168.049 
168.049 
168.049 
168.049 
168.049 
168.049 
168.049 
168.049 
168.049 
168.049 
168.049 
168.049 
168.049 
168.049 
168.049 
168.049 
168.049 
168.049 
/

DZ
16000*1 /


TOPS
1600*2500  /


PORO
41*1000 
38*0.3 
2*1000 
38*0.3 
2*1000 
38*0.3 
2*1000 
38*0.3 
2*1000 
38*0.3 
2*1000 
38*0.3 
2*1000 
38*0.3 
2*1000 
38*0.3 
2*1000 
38*0.3 
2*1000 
38*0.3 
2*1000 
38*0.3 
2*1000 
38*0.3 
2*1000 
38*0.3 
2*1000 
38*0.3 
2*1000 
38*0.3 
2*1000 
38*0.3 
2*1000 
38*0.3 
2*1000 
38*0.3 
2*1000 
38*0.3 
2*1000 
38*0.3 
2*1000 
38*0.3 
2*1000 
38*0.3 
2*1000 
38*0.3 
2*1000 
38*0.3 
2*1000 
38*0.3 
2*1000 
38*0.3 
2*1000 
38*0.3 
2*1000 
38*0.3 
2*1000 
38*0.3 
2*1000 
38*0.3 
2*1000 
38*0.3 
2*1000 
38*0.3 
2*1000 
38*0.3 
2*1000 
38*0.3 
2*1000 
38*0.3 
2*1000 
38*0.3 
2*1000 
38*0.3 
2*1000 
38*0.3 
41*1000 
41*1000 
38*0.3 
2*1000 
38*0.3 
2*1000 
38*0.3 
2*1000 
38*0.3 
2*1000 
38*0.3 
2*1000 
38*0.3 
2*1000 
38*0.3 
2*1000 
38*0.3 
2*1000 
38*0.3 
2*1000 
38*0.3 
2*1000 
38*0.3 
2*1000 
38*0.3 
2*1000 
38*0.3 
2*1000 
38*0.3 
2*1000 
38*0.3 
2*1000 
38*0.3 
2*1000 
38*0.3 
2*1000 
38*0.3 
2*1000 
38*0.3 
2*1000 
38*0.3 
2*1000 
38*0.3 
2*1000 
38*0.3 
2*1000 
38*0.3 
2*1000 
38*0.3 
2*1000 
38*0.3 
2*1000 
38*0.3 
2*1000 
38*0.3 
2*1000 
38*0.3 
2*1000 
38*0.3 
2*1000 
38*0.3 
2*1000 
38*0.3 
2*1000 
38*0.3 
2*1000 
38*0.3 
2*1000 
38*0.3 
2*1000 
38*0.3 
2*1000 
38*0.3 
2*1000 
38*0.3 
2*1000 
38*0.3 
41*1000 
41*1000 
38*0.3 
2*1000 
38*0.3 
2*1000 
38*0.3 
2*1000 
38*0.3 
2*1000 
38*0.3 
2*1000 
38*0.3 
2*1000 
38*0.3 
2*1000 
38*0.3 
2*1000 
38*0.3 
2*1000 
38*0.3 
2*1000 
38*0.3 
2*1000 
38*0.3 
2*1000 
38*0.3 
2*1000 
38*0.3 
2*1000 
38*0.3 
2*1000 
38*0.3 
2*1000 
38*0.3 
2*1000 
38*0.3 
2*1000 
38*0.3 
2*1000 
38*0.3 
2*1000 
38*0.3 
2*1000 
38*0.3 
2*1000 
38*0.3 
2*1000 
38*0.3 
2*1000 
38*0.3 
2*1000 
38*0.3 
2*1000 
38*0.3 
2*1000 
38*0.3 
2*1000 
38*0.3 
2*1000 
38*0.3 
2*1000 
38*0.3 
2*1000 
38*0.3 
2*1000 
38*0.3 
2*1000 
38*0.3 
2*1000 
38*0.3 
2*1000 
38*0.3 
2*1000 
38*0.3 
2*1000 
38*0.3 
41*1000 
41*1000 
38*0.3 
2*1000 
38*0.3 
2*1000 
38*0.3 
2*1000 
38*0.3 
2*1000 
38*0.3 
2*1000 
38*0.3 
2*1000 
38*0.3 
2*1000 
38*0.3 
2*1000 
38*0.3 
2*1000 
38*0.3 
2*1000 
38*0.3 
2*1000 
38*0.3 
2*1000 
38*0.3 
2*1000 
38*0.3 
2*1000 
38*0.3 
2*1000 
38*0.3 
2*1000 
38*0.3 
2*1000 
38*0.3 
2*1000 
38*0.3 
2*1000 
38*0.3 
2*1000 
38*0.3 
2*1000 
38*0.3 
2*1000 
38*0.3 
2*1000 
38*0.3 
2*1000 
38*0.3 
2*1000 
38*0.3 
2*1000 
38*0.3 
2*1000 
38*0.3 
2*1000 
38*0.3 
2*1000 
38*0.3 
2*1000 
38*0.3 
2*1000 
38*0.3 
2*1000 
38*0.3 
2*1000 
38*0.3 
2*1000 
38*0.3 
2*1000 
38*0.3 
2*1000 
38*0.3 
2*1000 
38*0.3 
41*1000 
41*1000 
38*0.3 
2*1000 
38*0.3 
2*1000 
38*0.3 
2*1000 
38*0.3 
2*1000 
38*0.3 
2*1000 
38*0.3 
2*1000 
38*0.3 
2*1000 
38*0.3 
2*1000 
38*0.3 
2*1000 
38*0.3 
2*1000 
38*0.3 
2*1000 
38*0.3 
2*1000 
38*0.3 
2*1000 
38*0.3 
2*1000 
38*0.3 
2*1000 
38*0.3 
2*1000 
38*0.3 
2*1000 
38*0.3 
2*1000 
38*0.3 
2*1000 
38*0.3 
2*1000 
38*0.3 
2*1000 
38*0.3 
2*1000 
38*0.3 
2*1000 
38*0.3 
2*1000 
38*0.3 
2*1000 
38*0.3 
2*1000 
38*0.3 
2*1000 
38*0.3 
2*1000 
38*0.3 
2*1000 
38*0.3 
2*1000 
38*0.3 
2*1000 
38*0.3 
2*1000 
38*0.3 
2*1000 
38*0.3 
2*1000 
38*0.3 
2*1000 
38*0.3 
2*1000 
38*0.3 
2*1000 
38*0.3 
41*1000 
41*1000 
38*0.3 
2*1000 
38*0.3 
2*1000 
38*0.3 
2*1000 
38*0.3 
2*1000 
38*0.3 
2*1000 
38*0.3 
2*1000 
38*0.3 
2*1000 
38*0.3 
2*1000 
38*0.3 
2*1000 
38*0.3 
2*1000 
38*0.3 
2*1000 
38*0.3 
2*1000 
38*0.3 
2*1000 
38*0.3 
2*1000 
38*0.3 
2*1000 
38*0.3 
2*1000 
38*0.3 
2*1000 
38*0.3 
2*1000 
38*0.3 
2*1000 
38*0.3 
2*1000 
38*0.3 
2*1000 
38*0.3 
2*1000 
38*0.3 
2*1000 
38*0.3 
2*1000 
38*0.3 
2*1000 
38*0.3 
2*1000 
38*0.3 
2*1000 
38*0.3 
2*1000 
38*0.3 
2*1000 
38*0.3 
2*1000 
38*0.3 
2*1000 
38*0.3 
2*1000 
38*0.3 
2*1000 
38*0.3 
2*1000 
38*0.3 
2*1000 
38*0.3 
2*1000 
38*0.3 
2*1000 
38*0.3 
41*1000 
41*1000 
38*0.3 
2*1000 
38*0.3 
2*1000 
38*0.3 
2*1000 
38*0.3 
2*1000 
38*0.3 
2*1000 
38*0.3 
2*1000 
38*0.3 
2*1000 
38*0.3 
2*1000 
38*0.3 
2*1000 
38*0.3 
2*1000 
38*0.3 
2*1000 
38*0.3 
2*1000 
38*0.3 
2*1000 
38*0.3 
2*1000 
38*0.3 
2*1000 
38*0.3 
2*1000 
38*0.3 
2*1000 
38*0.3 
2*1000 
38*0.3 
2*1000 
38*0.3 
2*1000 
38*0.3 
2*1000 
38*0.3 
2*1000 
38*0.3 
2*1000 
38*0.3 
2*1000 
38*0.3 
2*1000 
38*0.3 
2*1000 
38*0.3 
2*1000 
38*0.3 
2*1000 
38*0.3 
2*1000 
38*0.3 
2*1000 
38*0.3 
2*1000 
38*0.3 
2*1000 
38*0.3 
2*1000 
38*0.3 
2*1000 
38*0.3 
2*1000 
38*0.3 
2*1000 
38*0.3 
2*1000 
38*0.3 
41*1000 
41*1000 
38*0.3 
2*1000 
38*0.3 
2*1000 
38*0.3 
2*1000 
38*0.3 
2*1000 
38*0.3 
2*1000 
38*0.3 
2*1000 
38*0.3 
2*1000 
38*0.3 
2*1000 
38*0.3 
2*1000 
38*0.3 
2*1000 
38*0.3 
2*1000 
38*0.3 
2*1000 
38*0.3 
2*1000 
38*0.3 
2*1000 
38*0.3 
2*1000 
38*0.3 
2*1000 
38*0.3 
2*1000 
38*0.3 
2*1000 
38*0.3 
2*1000 
38*0.3 
2*1000 
38*0.3 
2*1000 
38*0.3 
2*1000 
38*0.3 
2*1000 
38*0.3 
2*1000 
38*0.3 
2*1000 
38*0.3 
2*1000 
38*0.3 
2*1000 
38*0.3 
2*1000 
38*0.3 
2*1000 
38*0.3 
2*1000 
38*0.3 
2*1000 
38*0.3 
2*1000 
38*0.3 
2*1000 
38*0.3 
2*1000 
38*0.3 
2*1000 
38*0.3 
2*1000 
38*0.3 
2*1000 
38*0.3 
41*1000 
41*1000 
38*0.3 
2*1000 
38*0.3 
2*1000 
38*0.3 
2*1000 
38*0.3 
2*1000 
38*0.3 
2*1000 
38*0.3 
2*1000 
38*0.3 
2*1000 
38*0.3 
2*1000 
38*0.3 
2*1000 
38*0.3 
2*1000 
38*0.3 
2*1000 
38*0.3 
2*1000 
38*0.3 
2*1000 
38*0.3 
2*1000 
38*0.3 
2*1000 
38*0.3 
2*1000 
38*0.3 
2*1000 
38*0.3 
2*1000 
38*0.3 
2*1000 
38*0.3 
2*1000 
38*0.3 
2*1000 
38*0.3 
2*1000 
38*0.3 
2*1000 
38*0.3 
2*1000 
38*0.3 
2*1000 
38*0.3 
2*1000 
38*0.3 
2*1000 
38*0.3 
2*1000 
38*0.3 
2*1000 
38*0.3 
2*1000 
38*0.3 
2*1000 
38*0.3 
2*1000 
38*0.3 
2*1000 
38*0.3 
2*1000 
38*0.3 
2*1000 
38*0.3 
2*1000 
38*0.3 
2*1000 
38*0.3 
41*1000 
41*1000 
38*0.3 
2*1000 
38*0.3 
2*1000 
38*0.3 
2*1000 
38*0.3 
2*1000 
38*0.3 
2*1000 
38*0.3 
2*1000 
38*0.3 
2*1000 
38*0.3 
2*1000 
38*0.3 
2*1000 
38*0.3 
2*1000 
38*0.3 
2*1000 
38*0.3 
2*1000 
38*0.3 
2*1000 
38*0.3 
2*1000 
38*0.3 
2*1000 
38*0.3 
2*1000 
38*0.3 
2*1000 
38*0.3 
2*1000 
38*0.3 
2*1000 
38*0.3 
2*1000 
38*0.3 
2*1000 
38*0.3 
2*1000 
38*0.3 
2*1000 
38*0.3 
2*1000 
38*0.3 
2*1000 
38*0.3 
2*1000 
38*0.3 
2*1000 
38*0.3 
2*1000 
38*0.3 
2*1000 
38*0.3 
2*1000 
38*0.3 
2*1000 
38*0.3 
2*1000 
38*0.3 
2*1000 
38*0.3 
2*1000 
38*0.3 
2*1000 
38*0.3 
2*1000 
38*0.3 
2*1000 
38*0.3 
41*1000 
 /

PERMX
16000*5 /

PERMY
16000*5 /

PERMZ
16000*1.25 /




ECHO

PROPS
-- -------------------------------------------------------------------------

PVTW
-- Item 1: pressure reference 
-- Item 2: water FVF 
-- Item 3: water compressibility 
-- Item 4: water viscosity (cp)
-- Item 5: water 'viscosibility' 

	256     1.024 2.9E-005      0.66        1* /


ROCK
-- Item 1: reference pressure 
-- Item 2: rock compressibility 
   286 1.5e-05
/

SWOF
-- Column 1: water saturation
-- Column 2: water relative permeability
-- Column 3: oil relative permeability when only oil and water are present
-- Column 4: water-oil capillary pressure 
0.1800	0.0000	0.8000	6.2749
0.2000	0.0000	0.7833	4.9591
0.2200	0.0000	0.7667	3.8818
0.2400	0.0000	0.7500	3.0070
0.2600	0.0000	0.7333	2.3030
0.2800	0.0000	0.7167	1.7421
0.3000	0.0000	0.7000	1.3000
0.3200	0.0000	0.5790	0.9556
0.3400	0.0001	0.4740	0.6909
0.3600	0.0005	0.3837	0.4903
0.3800	0.0016	0.3066	0.3408
0.4000	0.0036	0.2414	0.2314
0.4200	0.0070	0.1871	0.1529
0.4400	0.0123	0.1422	0.0980
0.4600	0.0202	0.1057	0.0607
0.4800	0.0313	0.0766	0.0360
0.5000	0.0462	0.0539	0.0203
0.5200	0.0657	0.0365	0.0108
0.5400	0.0906	0.0236	0.0053
0.5600	0.1219	0.0144	0.0024
0.5800	0.1603	0.0081	0.0009
0.6000	0.2070	0.0041	0.0003
0.6200	0.2628	0.0018	0.0001